92

O	6.162651	-2.686896	-0.313668
C	6.282210	-3.912844	-1.046538
C	5.714966	-3.622668	-2.434790
C	6.115799	-2.154025	-2.625200
C	5.906609	-1.591693	-1.211430
C	4.474651	-1.111924	-0.945604
S	4.084362	0.500183	-1.730359
C	4.613056	1.617920	-0.366599
C	4.329674	3.084317	-0.672038
C	4.493183	3.889726	0.614988
C	1.846995	0.566082	-1.256432
N	-0.203160	0.667000	-0.566963
C	-0.742960	1.928861	-0.869971
N	-1.715211	2.066957	-1.766331
C	-0.926902	-0.555255	-0.920482
C	-2.165394	-0.815627	-0.021020
O	-2.406591	0.063264	0.833616
O	-2.776545	-1.896898	-0.240475
N	-0.145829	2.978124	-0.340130
O	-2.752201	4.460896	-2.154190
C	-2.246375	5.428475	-1.510925
O	-1.230508	5.390597	-0.762536
C	-2.968503	6.778801	-1.616679
O	1.134521	0.306176	1.802114
C	1.742064	1.344590	2.209316
O	1.803826	2.452436	1.613568
C	2.503945	1.230083	3.541633
C	2.661746	-0.218107	4.005988
C	3.315581	-1.057092	2.917967
N	2.826763	-2.319960	2.767773
C	3.265181	-3.175139	1.680389
O	4.265653	-0.633273	2.251263
O	-4.050871	-3.143316	-2.320924
C	-5.164906	-3.709838	-1.651072
C	-5.786737	-4.728094	-2.604893
C	-6.201338	-2.653889	-1.238020
N	-5.701535	-1.769841	-0.206478
C	-6.462294	-0.731050	0.204670
O	-7.593656	-0.505741	-0.226063
C	-5.806683	0.214405	1.215115
N	-4.819004	-0.364234	2.100343
C	-5.155615	-0.976778	3.254225
O	-6.289882	-1.122791	3.699140
H	7.170749	-2.082088	-2.911147
H	6.118184	-4.285301	-3.205795
H	2.682985	-3.007018	0.764543
H	3.304795	-0.265898	4.894937
H	3.150929	-4.224125	1.970530
H	-7.113258	-3.149291	-0.877475
H	-5.325183	1.022638	0.653680
H	5.743597	-4.697231	-0.505098
H	4.386980	4.961478	0.415951
H	3.723111	3.597000	1.333060
H	-2.247957	7.600676	-1.596907
H	-2.308283	1.270964	-1.941631
H	1.905483	-2.487654	3.145015
H	-3.834638	-0.283464	1.808572
H	-4.720441	-1.831102	0.069614
H	1.689042	-0.638036	4.276256
H	3.483305	1.699609	3.415877
H	1.965687	1.816802	4.295016
H	-0.238700	-1.396289	-0.791110
H	4.315119	-2.971631	1.468724
H	-6.623636	0.644484	1.799153
H	-6.490782	-2.076613	-2.126997
H	5.527090	-1.627065	-3.380788
H	4.323085	-0.998634	0.132192
H	-5.034706	-5.464727	-2.901886
H	-6.142964	-4.225571	-3.510916
H	-6.630235	-5.250460	-2.141744
H	-3.582135	6.825682	-2.519160
H	-3.626988	6.894895	-0.748005
H	-2.129623	3.053555	-1.930486
H	-4.258325	-1.347171	3.793533
H	5.682174	1.446472	-0.209614
H	5.484104	3.733838	1.059447
H	4.999323	3.443131	-1.463283
H	3.304405	3.213893	-1.033926
H	4.081755	1.293974	0.531062
H	3.748442	-1.831806	-1.334828
H	6.614840	-0.789913	-0.972450
H	7.341939	-4.203955	-1.106105
H	-1.213196	-0.545870	-1.977261
H	0.126756	0.617923	0.428774
H	0.571781	2.825749	0.389386
H	-0.564579	3.944143	-0.501212
H	2.000413	0.158339	-0.265422
H	1.553610	-0.070464	-2.078553
H	1.792897	1.636229	-1.382458
H	4.625428	-3.734702	-2.438197
H	-4.834967	-4.237866	-0.738766
H	-3.500251	-2.677834	-1.656214