92

O	6.133633	-3.232436	-0.338838
C	5.730235	-4.099805	-1.404287
C	5.605220	-3.221643	-2.652825
C	6.672232	-2.151330	-2.384038
C	6.565616	-1.955738	-0.861085
C	5.552494	-0.896581	-0.427650
S	6.074023	0.793475	-0.931088
C	5.055116	1.764474	0.258020
C	4.922744	3.218573	-0.189947
C	4.166417	4.051635	0.848495
C	1.174045	0.645025	-1.569262
N	-0.259079	0.835507	-1.753395
C	-0.832117	2.077986	-1.719413
N	-2.033477	2.280141	-2.245693
C	-1.098326	-0.349546	-1.833171
C	-2.121148	-0.519418	-0.678048
O	-1.969064	0.148960	0.384018
O	-3.038202	-1.341300	-0.904818
N	-0.154364	3.109572	-1.200311
O	-3.358444	4.471092	-1.768555
C	-2.693087	5.448700	-1.306368
O	-1.453513	5.482105	-1.084398
C	-3.500197	6.699791	-0.944308
O	-0.032193	0.269094	2.057417
C	0.906036	1.198822	2.137691
O	1.103433	2.079716	1.310529
C	1.741023	1.088894	3.405833
C	2.009729	-0.346865	3.875542
C	2.958730	-1.077900	2.927317
N	2.533526	-2.297235	2.496714
C	3.301629	-3.110033	1.568245
O	4.045520	-0.594914	2.609929
O	-4.481099	-2.925586	-2.632181
C	-5.201488	-3.698285	-1.684458
C	-5.826213	-4.863229	-2.449434
C	-6.286316	-2.881822	-0.966122
N	-5.737391	-1.920661	-0.033690
C	-6.574281	-1.194131	0.736523
O	-7.799415	-1.318796	0.723753
C	-5.925335	-0.132763	1.624843
N	-4.514692	-0.293913	1.934297
C	-4.093686	-0.861580	3.091442
O	-4.805904	-1.272834	3.999755
H	7.665361	-2.533535	-2.645336
H	5.773339	-3.778842	-3.578986
H	3.042441	-2.900960	0.522964
H	2.509226	-0.312140	4.850689
H	3.114701	-4.168668	1.769175
H	-6.958844	-3.552664	-0.417231
H	-6.083684	0.839625	1.143817
H	4.790701	-4.589144	-1.123285
H	4.031774	5.082385	0.504351
H	3.175950	3.630359	1.047256
H	-2.874037	7.593520	-0.999630
H	-2.473115	1.542663	-2.771870
H	1.571589	-2.546445	2.672371
H	-3.779686	-0.017409	1.282093
H	-4.745477	-1.689947	-0.084463
H	1.066544	-0.883964	4.002696
H	2.682928	1.610990	3.231429
H	1.197653	1.632011	4.189135
H	-0.442023	-1.224442	-1.818337
H	4.362618	-2.902089	1.695907
H	-6.479204	-0.133617	2.565338
H	-6.899900	-2.378304	-1.726876
H	6.509515	-1.223842	-2.938612
H	5.441190	-0.914048	0.658957
H	-5.046876	-5.418128	-2.979245
H	-6.537109	-4.487342	-3.193465
H	-6.354069	-5.547689	-1.777508
H	-4.372768	6.800793	-1.594574
H	-3.861245	6.602061	0.086390
H	-2.578325	3.203087	-2.046374
H	-2.987078	-0.901068	3.135793
H	5.515369	1.695969	1.248390
H	4.713502	4.087171	1.798057
H	5.918435	3.647901	-0.363388
H	4.396843	3.252070	-1.151685
H	4.067956	1.298131	0.329438
H	4.571109	-1.115690	-0.863489
H	7.539244	-1.723124	-0.413769
H	6.490327	-4.883749	-1.548160
H	-1.647317	-0.411498	-2.780834
H	-0.679849	0.370691	1.277509
H	0.408112	2.891175	-0.382395
H	-0.645848	4.045176	-1.199247
H	1.415910	0.249297	-0.577498
H	1.545661	-0.052224	-2.329294
H	1.689960	1.596347	-1.694785
H	4.609480	-2.770011	-2.710804
H	-4.516871	-4.103758	-0.918729
H	-3.892576	-2.316739	-2.144038