197

C    -31.55570300  -21.11103500  -39.56536800  
C    -31.30563900  -19.68982200  -40.00048900  
C    -30.01071800  -19.15243400  -40.00965000  
C    -32.36955900  -18.85928900  -40.38045200  
C    -29.78790900  -17.82393100  -40.37524400  
C    -32.15441700  -17.52982500  -40.74561600  
C    -30.86015500  -17.00308900  -40.74025500  
C    -24.13434200  -23.27918400  -46.91365900  
C    -24.71916200  -24.18478200  -45.81156700  
C    -23.88241800  -25.45375600  -45.58679400  
C    -24.87031400  -23.40668200  -44.49940400  
C    -24.78501700  -21.39303100  -51.86126800  
C    -26.19604100  -21.48912500  -51.33661400  
C    -26.58587300  -21.61704100  -50.02601000  
C    -27.41113800  -21.41940100  -52.11169600  
C    -28.50082200  -21.50606900  -51.19891400  
C    -27.68635700  -21.30522800  -53.48702400  
N    -27.96680000  -21.62795500  -49.93376500  
C    -29.83468700  -21.46926400  -51.62228800  
C    -29.00928600  -21.28013300  -53.91047800  
C    -30.07400800  -21.35810200  -52.98678000  
C    -31.69281100  -14.17484100  -48.16334400  
C    -31.06412300  -14.79764700  -46.93281100  
C    -31.82681500  -15.50999800  -46.00058700  
C    -29.68775700  -14.67526500  -46.68490700  
C    -31.25039300  -16.09105000  -44.86764200  
C    -29.09573600  -15.24527500  -45.56074500  
C    -29.87643300  -15.96259200  -44.64541900  
O    -29.23637200  -16.51750000  -43.57007400  
C    -30.93558500  -17.83618600  -53.21863300  
C    -31.90373000  -18.40235400  -52.20703400  
O    -32.90424100  -19.03931100  -52.53633200  
N    -31.58601700  -18.15005100  -50.90881000  
C    -32.42873700  -18.65651600  -49.84295900  
C    -33.65377800  -17.77679100  -49.57438000  
H    -30.69157300  -17.72638000  -50.68642900  
C    -25.47400100   -9.01406700  -53.29974600  
C    -26.18910300   -8.99241400  -51.94920800  
C    -26.05296300  -10.29453400  -51.17626700  
O    -25.32192800  -11.21090800  -51.50474500  
O    -26.83450000  -10.31081200  -50.08620400  
C    -25.65781100  -17.19395600  -53.61267600  
C    -27.11925400  -16.93226500  -54.00705600  
C    -24.68576100  -17.29420700  -54.79339300  
C    -27.35238700  -15.60490500  -54.73665600  
C    -19.03097500  -18.02626500  -49.77497900  
C    -20.36793500  -18.72464800  -50.04333900  
C    -21.51563800  -18.23443100  -49.14783100  
C    -22.80516200  -19.03810200  -49.35918800  
C    -23.95252400  -18.70973200  -48.39211100  
N    -24.56719100  -17.41092500  -48.63606100  
H    -18.70174200  -18.18458400  -48.74171700  
N    -26.56117400  -12.79569000  -48.78526800  
C    -26.66061000  -13.81996400  -49.60924800  
C    -27.40322600  -13.66336400  -50.90223400  
C    -26.03657900  -15.10435000  -49.32153400  
O    -26.13400000  -16.06490100  -50.16308500  
C    -25.31005500  -15.20942900  -48.07981100  
C    -24.60841400  -16.41603000  -47.78888000  
C    -25.31375300  -14.09996300  -47.17280600  
C    -24.79742500  -14.17431100  -45.74702500  
C    -25.92220800  -12.93656500  -47.58712000  
H    -25.14871100  -17.23182800  -49.48222600  
H    -25.93262000  -12.05798000  -46.94781000 
H    -28.04790900  -14.52800700  -51.08217500  
H    -27.99992000  -12.75065600  -50.88852400  
H    -26.69696200  -13.60112500  -51.73704100  
H    -24.95164400  -13.19621800  -45.27087800  
H    -25.39064400  -14.90142900  -45.18055300  
C    -27.93588300  -24.66498900  -41.89627600  
C    -27.38284600  -23.28251700  -41.73911500  
C    -26.22901200  -23.05936700  -40.97353400  
C    -28.03687300  -22.17210500  -42.28970900  
C    -25.74166600  -21.76953800  -40.76235300  
C    -27.55760500  -20.87830700  -42.07571700  
C    -26.40731200  -20.67194500  -41.31096100  
C    -22.71705100  -19.76962200  -43.10278200  
C    -22.30898900  -19.25679000  -44.49873500  
C    -22.08662500  -20.39435900  -45.48156100  
O    -23.31609800  -18.40102900  -45.06085600  
H    -31.09949900  -21.30499500  -53.33855000  
H    -30.65532400  -21.52339400  -50.91358400  
H    -29.23290600  -21.19723600  -54.97007900  
H    -26.87540500  -21.24320800  -54.20749200  
H    -25.97791900  -21.71356500  -49.13749300  
H    -24.05512900  -21.49597700  -51.05305200  
H    -24.57358300  -22.17634400  -52.59910600  
H    -24.60269000  -20.43148900  -52.35693300  
H    -28.49311000  -21.68879600  -49.07422800  
H    -28.41791700  -15.44570800  -54.93255800  
H    -26.99388200  -14.75824700  -54.13979200  
H    -26.83441700  -15.57222700  -55.70070700  
H    -27.48094400  -17.76207200  -54.62995400  
H    -27.72595800  -16.95023100  -53.09389200  
H    -24.99916000  -18.07278900  -55.49932700  
H    -24.61970100  -16.35319900  -55.34878500  
H    -23.67419900  -17.54248800  -54.45399700  
H    -25.32808600  -16.40823600  -52.92090800  
H    -33.35561200  -16.76281900  -49.28887200  
H    -34.27243900  -17.71836300  -50.47320800  
H    -34.26117700  -18.19827600  -48.76523700  
H    -31.81445900  -18.74522300  -48.94198600  
H    -32.76395500  -19.66155100  -50.12077700  
H    -30.48023600  -18.65760200  -53.77772300  
H    -31.49136900  -17.22146500  -53.93244800  
H    -30.14343200  -17.23741200  -52.76468800  
H    -31.11977900  -14.46861500  -49.05206500  
H    -32.69916000  -14.58712100  -48.30011300  
H    -29.06336400  -14.12712100  -47.38613000  
H    -28.03127100  -15.14270500  -45.37667800  
H    -31.86475400  -16.64464400  -44.16133900  
H    -32.89606600  -15.62305600  -46.16229500  
H    -29.87216000  -16.99034700  -43.01120300  
H    -25.89265500   -9.78520800  -53.95229300  
H    -25.57068000   -8.04757500  -53.80326400  
H    -24.41179000   -9.23747400  -53.17348100  
H    -25.79940900   -8.19143600  -51.30731200  
H    -27.25864700   -8.77982800  -52.06077500  
H    -26.72680100  -11.18159400  -49.60544100  
H    -18.24564500  -18.40544300  -50.43626400  
H    -19.10679900  -16.94497000  -49.93565800  
H    -20.24351900  -19.80699200  -49.90118400  
H    -20.64895400  -18.58915400  -51.09611100  
H    -21.21106100  -18.31002100  -48.09413100  
H    -21.70212600  -17.16885800  -49.33597800  
H    -22.58402500  -20.10613500  -49.23148100  
H    -23.15456200  -18.92390600  -50.39332900  
H    -23.61702400  -18.73235300  -47.35292300  
H    -24.74764300  -19.45482400  -48.50786000  
H    -25.61950600  -18.13171200  -53.04099500  
H    -28.62661500  -24.91105800  -41.07961700
H    -28.49385700  -24.77477100  -42.83133200  
H    -27.14597200  -25.42254600  -41.88519700  
H    -25.70842100  -23.90848100  -40.53700500  
H    -24.84453000  -21.62233500  -40.16751500  
H    -26.03234900  -19.66575400  -41.14811100  
H    -28.08355800  -20.03251900  -42.50601600  
H    -28.92775700  -22.31975800  -42.89519100  
H    -24.76721300  -22.38515000  -47.00310600  
H    -23.14780800  -22.92439900  -46.58803000  
H    -22.85234900  -25.19732200  -45.30845200  
H    -24.30247500  -26.05695000  -44.77480900  
H    -23.83956900  -26.08740600  -46.47731700  
H    -25.49077200  -22.51274000  -44.62410300  
H    -25.33315100  -24.01894400  -43.72091700  
H    -23.89209400  -23.08340000  -44.12309300  
H    -25.72244600  -24.49920200  -46.13921800  
H    -21.92994800  -20.40246500  -42.68022000  
H    -22.87997600  -18.93343100  -42.41331500  
H    -23.64273200  -20.34989100  -43.16100300  
H    -21.35469200  -21.10500900  -45.08609400  
H    -23.02567700  -20.92524300  -45.65286100  
H    -21.71611400  -20.02159600  -46.44036800  
H    -21.37121200  -18.68707900  -44.39867900  
H    -23.34891000  -17.58566000  -44.54226700  
H    -30.77797600  -21.78474100  -39.93897200  
H    -31.55656000  -21.19431100  -38.47151100  
H    -32.52307700  -21.47572800  -39.92186000  
H    -29.16860400  -19.78075200  -39.73371700  
H    -28.77757000  -17.42466100  -40.37028500  
H    -30.68816900  -15.96258700  -41.00133300  
H    -32.99674400  -16.90311300  -41.02506700  
H    -33.38026000  -19.25978000  -40.38569600  
C    -31.29101000  -21.64306700  -46.28066000  
C    -30.06454400  -22.30497200  -46.36137400  
C    -28.88489800  -21.57161100  -46.51424900  
C    -28.90348200  -20.17032100  -46.59728500  
C    -30.14168000  -19.52156300  -46.51742200  
C    -31.32244700  -20.24944200  -46.35570300  
H    -32.21181500  -22.20710000  -46.16585300  
H    -30.02470100  -23.38961500  -46.30874000  
H    -27.93053800  -22.09485900  -46.55604700  
H    -30.18683300  -18.43906900  -46.58630300  
H    -32.27095200  -19.72339300  -46.29315400  
C    -27.58523400  -19.39720600  -46.72312300  
H    -26.88660000  -20.06320000  -47.25022700  
C    -26.99352000  -19.12289900  -45.33052500  
H    -25.99009300  -18.69626000  -45.41523600  
H    -27.62923800  -18.42088000  -44.77740700  
H    -26.92581200  -20.04331300  -44.74477600  
N    -27.62512300  -18.14726000  -47.47737700  
H    -28.07047900  -18.25132600  -48.38910600  
H    -28.14759700  -17.43599300  -46.97071700  
O    -28.53864000  -17.57166400  -50.50887000  
H    -28.24233900  -18.33797600  -51.01858100  
H    -27.74907800  -16.99384700  -50.43893300  
H    -24.05892800  -16.52336200  -46.85716400  
O    -23.44297000  -14.60713500  -45.57583300  
H    -22.87991900  -14.01313600  -46.09125300  
C    -23.99500500  -23.95084800  -48.28390800  
H    -23.63229000  -23.24314500  -49.03705300  
H    -23.28630400  -24.78352000  -48.25675400  
H    -24.95514400  -24.34145300  -48.63950500  
C    -31.77940500  -12.63991800  -48.11094800  
H    -30.78657600  -12.18984600  -48.01009000  
H    -32.23551800  -12.24436500  -49.02424100  
H    -32.38179700  -12.30937600  -47.25848200 