197

C                -31.55571200  -21.11103000  -39.56534800  
C                -31.30562700  -19.68982900  -40.00051200  
C                -30.12264300  -19.02522800  -39.64485400  
C                -32.31599300  -18.95113500  -40.63298400  
C                -29.97086500  -17.65701500  -39.87430000  
C                -32.17325900  -17.58233000  -40.86087800  
C                -31.00597400  -16.92419200  -40.46376500  
C                -24.13437400  -23.27916400  -46.91365000  
C                -25.47454300  -23.53970100  -46.20485700  
C                -25.70704700  -25.02361100  -45.88448800  
C                -25.56708800  -22.68645900  -44.93482500  
C                -24.78504200  -21.39299800  -51.86127800  
C                -26.19601200  -21.48912900  -51.33660800  
C                -26.57519900  -21.40865500  -50.01719000  
C                -27.41425700  -21.55800400  -52.10621900  
C                -28.49792200  -21.51911500  -51.18314800  
C                -27.69929600  -21.61836000  -53.48190800  
N                -27.95484400  -21.44766600  -49.91742100  
C                -29.83288700  -21.52464800  -51.59963700  
C                -29.02539800  -21.62274200  -53.89892200  
C                -30.08352200  -21.57166800  -52.96701000  
C                -31.61395800  -14.14170300  -47.83732600  
C                -31.04764500  -14.47114100  -46.47084900  
C                -31.75077800  -15.26323800  -45.55713400  
C                -29.77356200  -14.02116000  -46.09054600  
C                -31.19711300  -15.63485900  -44.32877200  
C                -29.20900000  -14.37466400  -44.86992200  
C                -29.90933000  -15.20874000  -43.99210500  
O                -29.27275300  -15.58546200  -42.83941800  
C                -30.93554200  -17.83618000  -53.21864500  
C                -31.87165000  -18.46274900  -52.21624600  
O                -32.75453000  -19.25450400  -52.53548800  
N                -31.63684700  -18.10852700  -50.92159300  
C                -32.42874500  -18.65650800  -49.84295200  
C                -33.67286900  -17.82195700  -49.51918400  
H                -30.90096900  -17.45255800  -50.71001600  
C                -25.47400100   -9.01406700  -53.29974500  
C                -25.42750000   -9.04643900  -51.77739600  
C                -25.83911700  -10.39351500  -51.21516100  
O                -26.13542400  -11.35101400  -51.91203100  
O                -25.84145200  -10.40690800  -49.88276100  
C                -25.65785300  -17.19398400  -53.61265800  
C                -26.52376200  -16.27185200  -54.48723200  
C                -24.23002700  -17.39748700  -54.13220100  
C                -26.03802100  -14.81972100  -54.56305900  
C                -19.03389100  -18.01802900  -49.78011400  
C                -20.40638900  -18.68146800  -49.89359800  
C                -21.56775500  -17.68505200  -49.80570200  
C                -22.93785200  -18.36612400  -49.83610600  
C                -24.11322600  -17.39434800  -49.71269000  
N                -25.36975300  -18.12924600  -49.48695400  
H                -18.92469900  -17.49313000  -48.82393000  
N                -26.27879100  -12.81082900  -48.72618300  
C                -26.96519200  -13.86790700  -49.10650900  
C                -27.74155800  -13.83632900  -50.38781700  
C                -27.01115000  -15.08210100  -48.29579100  
O                -27.69000400  -16.08505600  -48.69164100  
C                -26.25967700  -15.06614200  -47.06121300  
C                -26.32701100  -16.19922600  -46.20303000  
C                -25.51345700  -13.89513000  -46.70879600  
C                -24.63519100  -13.80398800  -45.48116600  
C                -25.56253700  -12.82168700  -47.56497400  
H                -25.57100700  -18.74539200  -50.27344100  
H                -25.02233900  -11.90467700  -47.34416500  
H                -27.63300100  -14.78945500  -50.91287200  
H                -28.81361000  -13.72286700  -50.17953300  
H                -27.40452500  -13.01402000  -51.02024000  
H                -24.38248700  -12.74984400  -45.30420800  
H                -25.14786500  -14.16309400  -44.58333900  
C                -27.93588700  -24.66499200  -41.89626400  
C                -27.38283400  -23.28251100  -41.73914000  
C                -26.06617900  -23.09134100  -41.29371800  
C                -28.19161200  -22.15303800  -41.91509000  
C                -25.57404700  -21.81501500  -41.02611500  
C                -27.70590700  -20.87205800  -41.64377200  
C                -26.39562300  -20.69843400  -41.19523800  
C                -22.71708000  -19.76963800  -43.10279600  
C                -22.30895000  -19.25677200  -44.49872500  
C                -21.83546700  -20.37486600  -45.41819500  
O                -23.42894600  -18.57577200  -45.12043600  
H                -31.11096400  -21.54320800  -53.31536600  
H                -30.64952700  -21.47873100  -50.88527900  
H                -29.25543800  -21.66389800  -54.95974100  
H                -26.89305100  -21.65517100  -54.20966200  
H                -25.96303400  -21.29975000  -49.13204100  
H                -24.06822100  -21.31621300  -51.03926900  
H                -24.50850900  -22.27014600  -52.45941200  
H                -24.65517900  -20.51648500  -52.50895000  
H                -28.47245000  -21.32180600  -49.06124800  
H                -26.71351200  -14.21200600  -55.17379000  
H                -25.99074600  -14.35712600  -53.57077800  
H                -25.04137700  -14.74626700  -55.01057700  
H                -26.57909800  -16.69259900  -55.50100600  
H                -27.55087200  -16.28564700  -54.09980800  
H                -24.23686000  -17.80140300  -55.15139300  
H                -23.66492000  -16.46013200  -54.15242600  
H                -23.67427700  -18.10126900  -53.50271000  
H                -25.62150000  -16.78860400  -52.59138300  
H                -33.40125600  -16.80307500  -49.22219500  
H                -34.32459100  -17.76370500  -50.39500800  
H                -34.24011600  -18.27672400  -48.69931000  
H                -31.79053200  -18.75120900  -48.95833800  
H                -32.73424000  -19.66095000  -50.14834600  
H                -30.21430600  -18.59318900  -53.54342200  
H                -31.50708700  -17.52616700  -54.09627500  
H                -30.38617900  -16.97605000  -52.82535100  
H                -30.95704900  -14.57400300  -48.60486100  
H                -32.58447400  -14.63887400  -47.95177800  
H                -29.20024700  -13.39643600  -46.76987500  
H                -28.21830300  -14.03156100  -44.59128100  
H                -31.75302000  -16.27363700  -43.64749500  
H                -32.74770200  -15.61452500  -45.81248400  
H                -29.81334000  -16.23578100  -42.36494200  
H                -26.48250200   -9.22622100  -53.66410000  
H                -25.16936200   -8.03338400  -53.67810900  
H                -24.81114200   -9.77098100  -53.72655600  
H                -24.42272400   -8.82094100  -51.39855900  
H                -26.08316600   -8.28677800  -51.33453000  
H                -26.08900300  -11.33090100  -49.55680700  
H                -18.22502900  -18.75273200  -49.84847300  
H                -18.88080500  -17.28206800  -50.57769300  
H                -20.51737400  -19.43250400  -49.09939700  
H                -20.47318400  -19.23295600  -50.84084200  
H                -21.47229800  -17.10444400  -48.87595200  
H                -21.48918600  -16.95798300  -50.62630700  
H                -23.00977600  -19.09640800  -49.02116900  
H                -23.04146500  -18.93790900  -50.76894700  
H                -24.14882400  -16.73736700  -50.59630300  
H                -23.95818400  -16.74004900  -48.84447300  
H                -26.15329200  -18.17053200  -53.53474500  
H                -28.21518200  -25.08858500  -40.92339400  
H                -28.83247400  -24.67560700  -42.52330300  
H                -27.20596300  -25.34707600  -42.34437400  
H                -25.42435700  -23.95673100  -41.14694600  
H                -24.55203800  -21.69209700  -40.67902000  
H                -26.01753500  -19.70309000  -40.98130800  
H                -28.35699400  -20.01355000  -41.77338200  
H                -29.21512300  -22.27670500  -42.26028700  
H                -24.02820500  -22.19778000  -47.04744000  
H                -23.31537800  -23.60904000  -46.25642500  
H                -24.91400000  -25.40831600  -45.23040200  
H                -26.66192200  -25.16959800  -45.36645700  
H                -25.72391300  -25.64350000  -46.78601900  
H                -25.40035200  -21.62946500  -45.16590700  
H                -26.54140100  -22.78055300  -44.44621600  
H                -24.80919800  -22.99345000  -44.20372500  
H                -26.27256000  -23.21656700  -46.89207200  
H                -21.87631700  -20.28203200  -42.62426800  
H                -23.02557900  -18.93793000  -42.46205700  
H                -23.55302800  -20.47063000  -43.18501800  
H                -20.96848500  -20.88348800  -44.98425800  
H                -22.62566500  -21.11422800  -45.56977400  
H                -21.54790500  -19.97756700  -46.39594100  
H                -21.49299700  -18.53097000  -44.37660200  
H                -23.23424700  -17.63032600  -45.16093200  
H                -30.65054300  -21.72247200  -39.63759800  
H                -31.88422500  -21.13720500  -38.51952500  
H                -32.33686200  -21.58641000  -40.16562600  
H                -29.32489000  -19.58077700  -39.15947800  
H                -29.05661100  -17.15621100  -39.56867100  
H                -30.91318600  -15.84830300  -40.58584500  
H                -32.98398900  -17.02382100  -41.32058300  
H                -33.23902800  -19.44929600  -40.91838800  
C                -30.92703400  -20.49648800  -46.43260700  
C                -29.72809300  -21.21368000  -46.45453600  
C                -28.51497000  -20.55497800  -46.24320900  
C                -28.48495900  -19.17480700  -45.99780300  
C                -29.68907200  -18.46316300  -45.98172900  
C                -30.90203100  -19.12101800  -46.19648100  
H                -31.87172700  -21.00621200  -46.59765300  
H                -29.73607900  -22.28564700  -46.63251000  
H                -27.58270900  -21.11110200  -46.26396500  
H                -29.68744400  -17.39309500  -45.80428800  
H                -31.82703700  -18.55247100  -46.17416700  
C                -27.14665800  -18.50764900  -45.72034000  
H                -26.36506800  -19.16089000  -46.12861200  
C                -26.88266800  -18.29254700  -44.22628800  
H                -25.84185100  -18.00754300  -44.04675000  
H                -27.55412500  -17.53938900  -43.79968000  
H                -27.04262900  -19.23837700  -43.70682800  
N                -27.05162500  -17.25121900  -46.48800500  
H                -26.15801600  -17.48626700  -49.40824200  
H                -27.53305000  -17.15590400  -47.40816900  
O                -24.81103600  -19.90945300  -47.35781400  
H                -24.26442200  -19.43062000  -46.71107900  
H                -25.04598700  -19.25166300  -48.06381600  
H                -25.76842000  -16.21008300  -45.27270700  
O                -23.44588700  -14.59890200  -45.58097200  
H                -23.00161300  -14.33676100  -46.39905500  
C                -23.99498300  -23.95086900  -48.28390500  
H                -23.05164300  -23.66785800  -48.76351700  
H                -24.00782000  -25.04386900  -48.21562900  
H                -24.80740900  -23.65036300  -48.95488400  
C                -31.77940200  -12.63992300  -48.11094800  
H                -30.82257400  -12.11198800  -48.04993100  
H                -32.18787200  -12.46934400  -49.11223000  
H                -32.45748500  -12.18047000  -47.38458800