290			
			
C	2.863726	7.883649	0.196196
C	2.378139	0.704705	-6.300868
C	1.307542	-0.388203	-6.329685
C	3.824231	7.220688	1.196267
O	3.967817	7.655503	2.336313
O	0.856307	-0.810640	-7.394723
N	0.885620	-0.862983	-5.116130
N	4.561417	6.180669	0.728271
C	-0.136538	-1.901739	-5.053018
C	-1.545002	-1.272391	-4.940007
O	-1.765224	-0.337808	-4.148682
C	0.116397	-2.852170	-3.855465
C	-0.769290	-4.079103	-3.878540
C	-0.393570	-5.213983	-4.612394
C	-1.993765	-4.101653	-3.197206
C	-1.222473	-6.335821	-4.676583
C	-2.828086	-5.218528	-3.263276
C	-2.447201	-6.338536	-4.005804
N	-2.558109	-1.769923	-5.679547
C	-2.520585	-2.874793	-6.650156
C	-3.999138	-3.242941	-6.823703
C	-4.717717	-1.895905	-6.655125
C	-3.909486	-1.196836	-5.552872
C	3.592634	3.048086	-2.543389
C	4.746633	2.054900	-2.765306
O	5.911447	2.457493	-2.715944
C	2.135186	2.594134	-2.754790
C	1.708814	1.367817	-1.920158
O	1.475696	1.552086	-0.687339
O	1.660699	0.242595	-2.508679
N	4.436547	0.751510	-3.004895
C	5.483078	-0.242181	-3.210405
C	4.921001	-1.622529	-3.618413
C	4.751668	-2.594250	-2.485712
C	3.585083	-2.993044	-1.876958
C	5.813848	-3.313100	-1.824731
C	5.209634	-4.128731	-0.825279
C	7.210318	-3.361102	-1.984594
N	3.853384	-3.912747	-0.884834
C	5.959604	-4.969975	0.004638
C	7.958050	-4.197313	-1.163172
C	7.337563	-4.991851	-0.176000
C	9.829626	1.401753	-1.454996
C	9.566636	0.320144	-0.400785
C	10.823226	-0.366164	0.169276
C	11.756310	0.617944	0.890551
C	10.430823	-1.520232	1.103540
C	5.631251	5.616214	1.529595
C	6.205917	4.342278	0.892699
C	7.559325	3.994605	1.526729
C	5.233991	3.159989	0.995592
C	2.028959	6.939798	-0.683026
O	1.235407	6.041549	0.055246
C	-4.331231	-6.306967	4.538554
C	-3.381719	-5.159367	4.286423
C	-2.962993	-4.838384	2.988651
C	-2.850720	-4.401662	5.340471
C	-2.042443	-3.823099	2.741620
C	-0.172156	-7.962260	5.572896
C	-1.926140	-3.383999	5.115398
C	-1.498404	-3.089637	3.810267
C	1.020159	-7.326318	6.302440
C	1.269402	-5.897283	5.781758
O	-0.581857	-2.113804	3.640046
C	2.262244	-8.222954	6.189204
C	2.336433	-5.104998	6.544550
C	-9.272399	-0.680897	-2.602115
C	-8.110851	-1.685580	-2.583445
C	-8.559603	-3.018182	-1.950644
C	-6.889055	-1.082952	-1.873853
C	-7.535509	-4.154518	-2.044607
C	-6.909422	-3.490109	4.357007
C	-7.765822	-2.600981	3.486583
C	-9.011824	-3.029162	3.012203
C	-7.333472	-1.312242	3.138818
C	-9.807394	-2.198819	2.219052
C	-8.122986	-0.478388	2.348264
C	-9.366159	-0.918220	1.884823
C	2.786717	-8.346240	1.092927
C	1.988436	-7.122213	0.705931
C	2.017729	-5.948475	1.467328
C	1.195531	-7.115441	-0.452216
C	1.299460	-4.804972	1.095813
C	-3.387415	7.932666	3.512143
C	0.473676	-5.993736	-0.841206
C	-1.876677	8.062670	3.275421
C	0.517706	-4.815332	-0.073852
C	-1.361070	7.100389	2.202015
O	-0.192692	-3.749841	-0.501796
O	-1.633869	5.853943	2.394107
O	-0.736127	7.553855	1.220276
C	-3.384600	4.795583	5.708276
C	-1.909410	4.521672	6.059743
O	-1.594371	4.088765	7.170288
C	-4.319883	3.744938	6.321161
C	-4.149413	2.312653	5.777025
C	-5.021440	1.333672	6.576301
C	-4.457530	2.206154	4.276141
N	-1.008407	4.797677	5.081140
C	0.431566	4.595701	5.255184
C	1.126518	4.205612	3.942322
C	2.643554	4.138360	4.158922
C	0.577733	2.886179	3.387839
C	-3.777056	5.793332	-0.328237
C	-2.685312	4.842418	-0.681127
C	-2.472732	4.119895	-1.820419
N	-1.625183	4.570235	0.165338
C	-0.791949	3.724677	-0.440238
N	-1.291389	3.429779	-1.646360
C	-4.970162	6.766368	-5.197358
C	-4.869367	5.275520	-4.951436
C	-3.948201	4.491444	-5.660879
C	-5.669236	4.645928	-3.987116
C	-3.816794	3.125822	-5.400204
C	-5.538527	3.281723	-3.719015
C	-4.603014	2.517048	-4.417727
O	0.028995	-1.756504	1.116640
H	2.981777	0.696294	-5.391270
H	1.886185	1.680497	-6.376050
H	1.167210	-3.153664	-3.906854
O	-0.670563	2.094917	-3.955762
H	-0.021207	-2.299516	-2.921903
H	0.562567	-5.220257	-5.130566
H	-2.278760	-3.247186	-2.591935
H	-0.908775	-7.207532	-5.244335
H	-3.768621	-5.220420	-2.719386
H	-3.092483	-7.211439	-4.048936
H	-0.058198	-2.454677	-5.990464
H	-4.195009	-3.724149	-7.785642
H	-4.296622	-3.935873	-6.029413
H	-4.660328	-1.319930	-7.585708
H	-5.773528	-1.997355	-6.390397
H	-3.872124	-0.111844	-5.672275
H	-4.305149	-1.404588	-4.551242
H	-1.931909	-3.711639	-6.275055
H	1.943155	2.372192	-3.805330
H	1.497352	3.438910	-2.479516
H	3.711401	3.407107	-1.515717
H	5.612684	-2.058488	-4.350506
H	3.971550	-1.489892	-4.149831
H	2.569262	-2.681877	-2.072092
H	7.700059	-2.756377	-2.743477
H	9.036669	-4.246391	-1.284436
H	5.477542	-5.583703	0.759827
H	7.947883	-5.634204	0.452601
H	6.097379	-0.339324	-2.306543
H	6.382789	4.544581	-0.174995
H	7.977149	3.087483	1.078329
H	8.287334	4.802485	1.393033
H	7.452008	3.815263	2.603733
H	5.575959	2.322206	0.382088
H	4.224596	3.426463	0.667299
H	5.154523	2.809358	2.030801
H	5.245502	5.405428	2.533152
H	0.759536	-7.248393	7.369973
H	0.503553	6.557616	0.473802
H	2.580062	-8.314690	5.142787
H	-5.030843	-6.440555	3.706657
H	-4.921228	-6.149383	5.447870
H	3.108771	-7.829472	6.760548
H	-3.358936	-5.401578	2.146008
H	2.054566	-9.233164	6.560423
H	-3.165593	-4.612721	6.360760
H	1.538709	-5.946412	4.717150
H	-1.735356	-3.599075	1.725528
H	0.323540	-5.343629	5.817914
H	-1.522213	-2.800755	5.937154
H	2.098716	-5.048134	7.613881
H	-0.336422	-2.020600	2.672951
H	3.331756	-5.552462	6.450969
H	2.401278	-4.080005	6.166239
H	0.040440	-8.071792	4.502615
H	-7.829220	-1.892872	-3.628273
H	-6.019922	-1.746416	-1.911641
H	-6.597223	-0.133083	-2.336611
H	-7.109616	-0.885435	-0.818069
H	-8.813350	-2.840607	-0.896611
H	-9.489731	-3.338149	-2.440212
H	-7.246851	-4.343587	-3.085838
H	-6.624304	-3.931492	-1.481185
H	-7.946242	-5.085946	-1.641258
H	-9.595277	-0.443044	-1.581308
H	-5.894180	-3.589898	3.959808
H	-7.337748	-4.492458	4.446130
H	-9.363595	-4.025777	3.268287
H	-6.368275	-0.959846	3.493675
H	-10.772385	-2.552754	1.865989
H	-7.768296	0.517329	2.096827
H	-9.985216	-0.266515	1.274532
H	-1.607776	9.080855	2.982265
H	-1.343797	7.833089	4.207147
H	2.188947	-9.260616	1.005889
H	-3.950373	8.200052	2.610058
H	3.141925	-8.279738	2.126097
H	-4.131917	3.730358	7.399945
H	-5.362535	4.063249	6.176349
H	2.611888	-5.916187	2.378265
H	1.143647	-8.012349	-1.066512
H	-3.100772	2.026964	5.932835
H	1.329571	-3.911460	1.711434
H	-4.877632	0.302647	6.234294
H	-0.135518	-6.006660	-1.737925
H	-4.780551	1.368980	7.644278
H	-0.092222	-2.953213	0.113306
H	-6.086884	1.574688	6.465925
H	-4.332757	1.175615	3.924974
H	-3.796933	2.836236	3.672817
H	-5.492602	2.507883	4.067053
H	-3.634930	5.781463	6.120746
H	0.930308	4.991935	3.201327
H	3.150511	3.842782	3.236064
H	2.900237	3.402226	4.931563
H	3.046210	5.110336	4.463175
H	1.078014	2.617143	2.452107
H	0.740346	2.069442	4.101229
H	-0.498216	2.950496	3.199571
H	0.560417	3.816012	6.013241
H	-4.537410	5.797635	-1.112399
H	-4.253127	5.521732	0.619137
H	-3.053269	4.042157	-2.723358
H	0.142696	3.338903	-0.060496
H	-4.865550	6.965821	-6.270993
H	-5.970101	7.114760	-4.913274
H	-6.402068	5.233680	-3.439133
H	-3.329908	4.955776	-6.425465
H	-6.159784	2.818046	-2.958266
H	-3.111500	2.531118	-5.976573
H	-4.471693	1.464781	-4.189219
H	10.430705	1.006759	-2.283353
H	10.364978	2.260978	-1.037828
H	8.921077	-0.453154	-0.837414
H	8.993086	0.753772	0.431693
H	11.379134	-0.794343	-0.679804
H	12.633619	0.101984	1.297244
H	12.117324	1.407297	0.224162
H	11.238932	1.101441	1.728848
H	11.315142	-2.047015	1.480435
H	9.793124	-2.251005	0.594917
H	9.875686	-1.145560	1.972485
H	-0.881855	1.132391	-3.929807
H	-1.354941	2.465077	-4.527974
H	6.426823	6.365284	1.657022
H	-3.719344	8.597799	4.316842
H	-10.139310	-1.079495	-3.141108
H	3.015557	0.577508	-7.177240
H	6.154043	0.140041	-3.988563
H	3.808158	3.902695	-3.193373
H	-0.400473	-8.957755	5.971349
H	-6.813958	-3.078175	5.368733
H	0.894408	5.509205	5.657136
H	-3.796389	-7.258270	4.663386
H	3.668265	-8.477290	0.451977
H	-1.505029	5.067619	1.137527
H	-1.070057	-7.342427	5.665266
H	-1.328764	5.162859	4.181712
H	1.179947	-0.406252	-4.246525
H	3.471303	0.430702	-2.938794
H	8.886409	1.768173	-1.873454
H	3.156589	-4.334649	-0.283048
C	-0.133809	-0.397639	0.774875
C	1.280796	-0.412740	0.388497
H	-0.818711	-0.209716	-0.060447
H	-0.398114	0.242986	1.624694
C	4.621641	-0.292354	3.034189
C	3.330073	-0.173171	3.555384
C	4.807758	-0.441069	1.658217
C	2.226845	-0.195861	2.708356
H	3.180991	-0.073397	4.626189
C	3.706063	-0.467475	0.807913
H	5.807211	-0.546797	1.248164
C	2.402312	-0.338879	1.319803
H	1.230563	-0.147880	3.130691
H	3.847838	-0.589797	-0.260535
H	5.479510	-0.279751	3.700659
H	1.478582	-0.807839	-0.598578
H	-3.380332	6.807922	-0.213087
H	-3.652425	6.909808	3.780781
H	-3.509692	4.867717	4.623486
H	-8.980494	0.258673	-3.084548
H	-2.074956	-2.529705	-7.592578
C	-3.910870	7.579639	-4.429927
H	-2.898527	7.277735	-4.715930
H	-4.016406	8.649527	-4.636793
H	-4.005517	7.432070	-3.349841
H	4.446069	5.865442	-0.222449
H	2.194910	8.511115	0.791327
H	3.455848	8.551314	-0.446802
H	1.420573	7.558205	-1.364556
H	2.682323	6.336299	-1.330122
H	-0.891207	2.817962	-2.381438