279			
			
C	3.017103	0.337738	-5.974107
C	2.272836	-0.997814	-5.941913
O	2.195927	-1.721643	-6.934308
N	1.696550	-1.328766	-4.742080
C	0.863418	-2.516896	-4.602209
C	-0.628964	-2.125604	-4.664233
O	-1.054024	-1.151310	-4.026738
C	1.183630	-3.273544	-3.285150
C	0.531781	-4.637521	-3.206761
C	1.085045	-5.730835	-3.890455
C	-0.642706	-4.836451	-2.469203
C	0.471023	-6.983964	-3.859557
C	-1.262843	-6.086936	-2.441647
C	-0.712898	-7.163196	-3.140597
N	-1.472800	-2.875760	-5.414951
C	-1.166583	-4.061430	-6.237682
C	-2.550046	-4.668684	-6.501805
C	-3.467097	-3.437823	-6.566672
C	-2.899751	-2.514614	-5.479388
C	3.470808	3.253627	-2.456211
C	4.789629	2.464701	-2.460388
O	5.856909	3.067591	-2.328993
C	2.105184	2.521876	-2.574166
C	1.874969	1.302385	-1.691460
O	1.474255	1.562213	-0.448998
O	2.069250	0.154261	-2.093385
N	4.731165	1.115280	-2.610106
C	5.932977	0.293047	-2.571029
C	5.630499	-1.197232	-2.849242
C	5.507513	-2.061147	-1.627061
C	4.360066	-2.458398	-0.978395
C	6.603174	-2.649118	-0.898938
C	6.036607	-3.397545	0.174582
C	8.001823	-2.630873	-1.046447
N	4.673248	-3.255530	0.099498
C	6.825515	-4.119901	1.077471
C	8.788710	-3.341779	-0.146751
C	8.204262	-4.079692	0.905028
C	9.764296	2.855222	-0.717738
C	9.615785	1.737299	0.320516
C	10.932488	1.242652	0.950656
C	11.661113	2.346158	1.732334
C	10.676241	0.022613	1.847537
C	1.698563	8.156443	-0.396334
C	3.140947	7.935169	0.025184
O	4.065397	8.613845	-0.418764
N	3.341549	6.907687	0.907770
C	4.666141	6.568683	1.407011
C	5.302407	5.317987	0.769716
C	6.779480	5.221126	1.174520
C	4.553566	4.032099	1.139849
C	-2.662294	-5.207694	4.988264
C	-2.141376	-5.116638	3.691283
C	-2.465753	-4.133840	5.864942
C	-1.431653	-3.991614	3.267298
C	-1.760193	-3.003474	5.458985
C	-1.226047	-2.921480	4.158406
O	-0.526701	-1.813092	3.846800
C	0.837299	-7.292836	6.659898
C	1.703944	-6.213481	7.324943
C	1.655701	-4.909926	6.504902
C	3.136285	-6.727589	7.536140
C	2.376519	-3.714509	7.136859
C	-8.537671	-2.657281	-2.998661
C	-7.266451	-3.503430	-2.830332
C	-7.463629	-4.552241	-1.718019
C	-6.049635	-2.601084	-2.577056
C	-6.311091	-5.549427	-1.558123
C	-6.403257	-4.231410	4.408932
C	-6.767248	-3.271770	3.300975
C	-8.094743	-3.138582	2.870898
C	-5.788512	-2.470843	2.696689
C	-8.440018	-2.222932	1.876073
C	-6.126999	-1.553099	1.700280
C	-7.456135	-1.423504	1.290015
C	3.446141	-6.444695	1.981533
C	3.186972	-5.223811	2.611831
C	2.760845	-6.733734	0.793479
C	2.278150	-4.306540	2.075818
C	1.849941	-5.839161	0.247774
C	1.567449	-4.583424	0.866471
O	0.708529	-3.752162	0.339053
C	-4.757496	7.470842	2.419788
C	-3.461668	7.951211	1.760690
C	-2.319128	6.906447	1.732944
O	-2.690166	5.675110	1.806454
O	-1.153134	7.323243	1.613639
C	-4.440344	4.641454	4.981069
C	-2.965969	4.632008	5.450888
O	-2.685547	4.439681	6.639029
C	-5.321166	3.715314	5.827097
C	-5.199075	2.215074	5.496710
C	-5.787780	1.360453	6.628370
C	-5.867762	1.865894	4.158589
N	-2.033888	4.888984	4.499637
C	-0.618507	5.064997	4.837749
C	0.314975	4.852860	3.639308
C	1.752432	5.181920	4.066871
C	0.215548	3.428909	3.081436
C	-4.426195	4.889971	-1.144927
C	-3.059868	4.361396	-1.426546
C	-2.520445	3.766204	-2.542024
N	-2.051089	4.362108	-0.489446
C	-0.974220	3.773359	-1.059507
N	-1.212555	3.394021	-2.309245
C	-5.303350	5.100575	-6.170717
C	-4.968841	3.687613	-5.736814
C	-3.710431	3.135945	-6.019207
C	-5.873597	2.924509	-4.988313
C	-3.342829	1.882106	-5.531279
C	-5.522793	1.657840	-4.514111
C	-4.252080	1.141832	-4.769926
O	-0.194056	1.608359	-4.502058
O	0.503381	-1.524767	1.380583
H	3.677423	0.467610	-5.112489
H	2.279139	1.147840	-5.954074
H	2.272387	-3.378792	-3.237738
H	0.879297	-2.668280	-2.427095
H	2.011376	-5.597729	-4.445185
H	-1.042312	-4.019229	-1.878910
H	0.920844	-7.819819	-4.389335
H	-2.166710	-6.223598	-1.854488
H	-1.191450	-8.138484	-3.108960
H	1.119425	-3.145999	-5.456357
H	-2.568179	-5.276512	-7.411203
H	-2.832226	-5.309296	-5.659018
H	-3.382569	-2.957928	-7.548669
H	-4.521952	-3.672894	-6.399734
H	-3.012201	-1.453295	-5.710702
H	-3.369593	-2.690455	-4.504000
H	-0.509073	-4.751847	-5.710099
H	1.932516	2.172615	-3.592462
H	1.316563	3.249552	-2.372535
H	3.497619	3.850407	-1.539936
H	6.441868	-1.591729	-3.473424
H	4.724400	-1.277034	-3.461720
H	3.328233	-2.224754	-1.199213
H	8.464115	-2.071098	-1.856122
H	9.870233	-3.336928	-0.256953
H	6.365721	-4.697205	1.873700
H	8.844011	-4.629508	1.590401
H	6.431718	0.402044	-1.600189
H	1.546816	9.227285	-0.546670
H	5.258368	5.442731	-0.319803
H	7.255148	4.359687	0.696000
H	7.333944	6.118995	0.879113
H	6.885513	5.103214	2.261134
H	4.990045	3.169901	0.626510
H	3.494948	4.080876	0.862578
H	4.604719	3.842152	2.219592
H	4.612612	6.438244	2.496821
H	-2.277246	-5.939855	2.994317
H	-2.865111	-4.176014	6.875789
H	-1.015503	-3.943367	2.263920
H	-1.602588	-2.165598	6.131032
H	-0.227847	-1.778592	2.897041
H	1.275100	-5.998976	8.317292
H	3.618822	-6.932856	6.572432
H	3.758504	-6.003631	8.071875
H	3.140917	-7.659859	8.113914
H	2.067614	-5.102327	5.505194
H	0.605885	-4.639487	6.343726
H	1.999008	-3.511293	8.147080
H	3.457926	-3.872551	7.213324
H	2.218113	-2.812164	6.538416
H	1.235045	-7.553403	5.671730
H	-7.097033	-4.045701	-3.774510
H	-5.114503	-3.168169	-2.548409
H	-5.951366	-1.844593	-3.364047
H	-6.142788	-2.076600	-1.619154
H	-7.629681	-4.029649	-0.766611
H	-8.388609	-5.108500	-1.927214
H	-6.104506	-6.073044	-2.499775
H	-5.387352	-5.056657	-1.241096
H	-6.550204	-6.305693	-0.803121
H	-8.752157	-2.094577	-2.082164
H	-5.360191	-4.550286	4.339121
H	-7.041758	-5.121640	4.393499
H	-8.866075	-3.758222	3.324132
H	-4.751153	-2.567762	3.006523
H	-9.476705	-2.131703	1.561230
H	-5.351750	-0.940070	1.250394
H	-7.721471	-0.702638	0.521497
H	2.946142	-7.677464	0.282373
H	3.703137	-4.971793	3.537084
H	1.325023	-6.076996	-0.671688
H	2.083828	-3.366009	2.584430
H	0.609361	-2.493765	0.939993
H	-3.657483	8.225358	0.713389
H	-3.077461	8.858674	2.239720
H	-5.085711	6.533038	1.967208
H	-5.037432	3.877486	6.872457
H	-6.374700	4.013578	5.723446
H	-4.128823	1.976028	5.424171
H	-5.702214	0.290789	6.406578
H	-5.273685	1.552619	7.576297
H	-6.853330	1.584190	6.773596
H	-5.731857	0.809793	3.903464
H	-5.464798	2.460750	3.332821
H	-6.947811	2.058771	4.207561
H	-4.789451	5.675119	5.102560
H	0.013197	5.558813	2.853363
H	2.454968	5.025594	3.241093
H	2.079087	4.535099	4.891737
H	1.846350	6.222201	4.399243
H	0.881133	3.299860	2.219820
H	0.500115	2.685940	3.838124
H	-0.800094	3.200753	2.751251
H	-0.381815	4.362201	5.645073
H	-5.093328	4.658618	-1.980563
H	-4.846001	4.444581	-0.236284
H	-3.003072	3.569701	-3.486127
H	-0.052332	3.614328	-0.520759
H	-5.136761	5.204577	-7.251937
H	-6.370500	5.290691	-6.003654
H	-6.855513	3.333965	-4.760077
H	-2.988966	3.715265	-6.590988
H	-6.233578	1.087857	-3.921233
H	-2.325880	1.526471	-5.669247
H	-3.949464	0.186886	-4.351585
H	10.468308	2.568109	-1.508911
H	10.127555	3.787202	-0.272290
H	9.116897	0.880271	-0.149612
H	8.941706	2.071526	1.122169
H	11.592157	0.923282	0.127945
H	12.593215	1.969796	2.170242
H	11.914282	3.201080	1.097657
H	11.035225	2.716041	2.554240
H	11.611573	-0.373948	2.260371
H	10.178976	-0.783416	1.297759
H	10.029502	0.289736	2.692400
H	-0.504510	2.200961	-3.782319
H	5.293138	7.440381	1.201311
H	1.534549	7.663937	-1.361665
H	0.951712	7.779470	0.309931
H	-5.559291	8.214197	2.321195
H	-9.410881	-3.283986	-3.215607
H	3.593604	0.387409	-6.897780
H	6.631107	0.689104	-3.318059
H	3.536206	3.972168	-3.279330
H	4.156736	-7.150170	2.402936
H	0.806489	-8.210211	7.260833
H	-6.528293	-3.760192	5.392561
H	-0.457669	6.075000	5.245810
H	-3.204830	-6.093219	5.306649
H	-2.131768	4.779993	0.464136
H	-0.466226	0.717205	-4.224975
H	-0.189904	-6.942737	6.514710
H	-2.325153	5.109550	3.538470
H	1.689924	-0.655361	-3.980699
H	2.532190	6.437504	1.285402
H	3.838772	0.636016	-2.612067
H	8.801266	3.068361	-1.193056
H	3.991075	-3.685035	0.719807
C	0.277511	-0.570704	0.354475
C	1.433417	0.445346	0.506216
H	1.364057	0.939902	1.475191
H	0.381573	-1.052403	-0.623588
C	-1.106687	0.049755	0.432442
C	-1.629269	0.487457	1.657254
C	-1.888274	0.174037	-0.721477
C	-2.902431	1.050398	1.722262
H	-1.050610	0.367431	2.566919
C	-3.164752	0.736603	-0.658025
H	-1.500051	-0.173734	-1.675366
C	-3.672728	1.180629	0.563095
H	-3.290537	1.392791	2.676635
H	-3.750309	0.845523	-1.565664
H	-4.659743	1.633165	0.613705
H	2.378129	-0.096331	0.431857
H	-4.429705	5.976496	-0.993373
H	-4.607355	7.283074	3.487241
H	-4.500655	4.429080	3.908891
H	-8.431544	-1.933767	-3.814682
H	-0.675826	-3.756984	-7.172434
C	-4.469392	6.166627	-5.434444
H	-3.399497	6.020532	-5.608334
H	-4.733918	7.174554	-5.773906
H	-4.631770	6.115021	-4.353948
