279			
			
C	2.782441	-0.262668	-6.150156
C	1.750787	-1.396037	-6.105698
O	1.243917	-1.856048	-7.129190
N	1.403981	-1.854707	-4.860082
C	0.232357	-2.714062	-4.681430
C	-1.041571	-1.892502	-4.977342
O	-1.128429	-0.710599	-4.595286
C	0.224511	-3.238870	-3.223102
C	-0.942300	-4.136301	-2.871829
C	-0.980984	-5.469780	-3.304900
C	-2.007210	-3.658891	-2.096529
C	-2.063119	-6.296945	-2.998260
C	-3.089134	-4.483571	-1.783927
C	-3.126580	-5.802868	-2.240825
N	-2.071851	-2.485643	-5.623259
C	-2.125705	-3.844800	-6.211860
C	-3.611106	-4.018318	-6.552016
C	-4.068330	-2.591034	-6.891357
C	-3.308245	-1.727545	-5.876832
C	3.937802	2.463542	-2.640628
C	4.828380	1.359750	-3.228554
O	5.290560	1.473470	-4.365492
C	2.605726	2.595343	-3.407436
C	1.769637	1.329552	-3.433432
O	0.838286	1.381501	-0.187762
O	2.102313	0.266673	-2.924133
N	5.085598	0.280785	-2.426220
C	5.823612	-0.884230	-2.917478
C	5.085321	-2.229519	-2.804442
C	5.120959	-2.868570	-1.446288
C	4.039858	-3.171534	-0.652385
C	6.284358	-3.371159	-0.753791
C	5.821249	-3.961782	0.461537
C	7.660516	-3.421223	-1.040691
N	4.457102	-3.808087	0.497139
C	6.688831	-4.574760	1.371186
C	8.525566	-4.034931	-0.138686
C	8.044030	-4.604308	1.058017
C	10.144509	0.924546	-1.263212
C	9.830941	0.140085	0.015448
C	11.061750	-0.287156	0.839549
C	11.882242	0.910862	1.341312
C	10.634424	-1.181241	2.012938
C	3.180954	7.565527	-0.445529
C	4.573505	7.043885	-0.139491
O	5.579420	7.475418	-0.700175
N	4.638296	6.030949	0.781743
C	5.911596	5.444871	1.174955
C	6.314815	4.178086	0.396959
C	7.787484	3.846649	0.672575
C	5.408989	2.986994	0.729138
C	-3.191789	-4.907028	5.071227
C	-2.782842	-5.031794	3.739433
C	-2.797685	-3.774329	5.793431
C	-1.992124	-4.056666	3.132966
C	-2.005665	-2.793384	5.203148
C	-1.584777	-2.924067	3.864945
O	-0.801414	-1.961641	3.357459
C	-0.034115	-7.609110	6.526284
C	0.986166	-6.681378	7.202092
C	0.919590	-5.274000	6.578168
C	2.393718	-7.293307	7.138209
C	1.813868	-4.221877	7.241275
C	-8.942713	-1.213550	-2.551154
C	-7.929243	-2.302818	-2.933395
C	-8.208835	-3.600458	-2.149295
C	-6.493889	-1.795704	-2.730279
C	-7.399619	-4.817796	-2.609720
C	-6.724930	-3.272671	4.711591
C	-7.187056	-2.400912	3.569791
C	-8.548997	-2.135190	3.369891
C	-6.259818	-1.809927	2.701364
C	-8.974103	-1.291576	2.343287
C	-6.679042	-0.966762	1.671371
C	-8.038208	-0.700084	1.492543
C	2.426958	-7.154025	1.714991
C	2.115202	-5.976943	2.402353
C	2.185525	-7.204247	0.336542
C	1.588191	-4.867309	1.739146
C	1.664272	-6.110675	-0.341074
C	1.350075	-4.891215	0.329952
O	0.914501	-3.857041	-0.332749
C	-3.131979	7.985734	2.724893
C	-1.728662	8.513237	3.046117
C	-0.616265	7.748490	2.291594
O	-0.803176	6.470237	2.241549
O	0.341006	8.376286	1.820785
C	-3.185515	5.099873	5.241859
C	-1.727348	4.751738	5.626276
O	-1.462429	4.239303	6.719081
C	-4.203847	4.565770	6.254067
C	-4.456287	3.046141	6.192616
C	-5.185790	2.570660	7.457047
C	-5.241534	2.641192	4.936670
N	-0.794297	5.067063	4.695155
C	0.637216	4.841432	4.886466
C	1.303904	4.244100	3.635515
C	2.827334	4.222225	3.818923
C	0.757637	2.849998	3.306509
C	-3.458928	5.450801	-0.873032
C	-2.054652	4.939876	-0.999300
C	-1.469167	4.083608	-1.907071
N	-1.050950	5.256496	-0.106812
C	0.056915	4.591249	-0.496306
N	-0.143544	3.861028	-1.585889
C	-4.555280	5.902926	-5.839513
C	-4.543392	4.461668	-5.366488
C	-3.414302	3.649375	-5.556652
C	-5.653249	3.909076	-4.715757
C	-3.387755	2.331568	-5.099866
C	-5.639163	2.586957	-4.264936
C	-4.505304	1.796886	-4.452391
O	0.635543	1.476542	-4.126416
O	-0.192396	-1.951314	0.840602
H	3.474185	-0.256668	-5.308799
H	2.242511	0.689139	-6.159637
H	1.163320	-3.770709	-3.049922
H	0.233576	-2.382482	-2.544556
H	-0.143927	-5.868268	-3.874723
H	-1.966988	-2.649006	-1.699453
H	-2.066493	-7.330265	-3.335893
H	-3.892873	-4.098781	-1.162229
H	-3.964598	-6.446690	-1.987366
H	0.313537	-3.539192	-5.392427
H	-3.766724	-4.731772	-7.366557
H	-4.146173	-4.388512	-5.670486
H	-3.761142	-2.329752	-7.910811
H	-5.151115	-2.454824	-6.822019
H	-3.069905	-0.726292	-6.241525
H	-3.869404	-1.613465	-4.940620
H	-1.776520	-4.594315	-5.502365
H	2.798245	2.875754	-4.449195
H	1.973051	3.377496	-2.971140
H	3.724315	2.279288	-1.584479
H	5.560843	-2.906167	-3.530086
H	4.049305	-2.105322	-3.136339
H	2.978607	-3.033335	-0.822156
H	8.047758	-3.000180	-1.964988
H	9.587824	-4.086567	-0.363828
H	6.310619	-5.022881	2.285645
H	8.741116	-5.079915	1.742905
H	6.782610	-0.952288	-2.387601
H	3.277876	8.557710	-0.888007
H	6.210394	4.417326	-0.669482
H	8.101400	2.959492	0.113530
H	8.444096	4.675868	0.386345
H	7.952208	3.640396	1.738257
H	5.661641	2.114999	0.116980
H	4.354680	3.221580	0.552674
H	5.515419	2.695904	1.781855
H	5.874438	5.220297	2.248955
H	-3.075495	-5.905088	3.161532
H	-3.113593	-3.652308	6.827196
H	-1.670529	-4.168485	2.102180
H	-1.695939	-1.910079	5.752980
H	-0.620845	-2.074913	2.368742
H	0.708798	-6.588224	8.264756
H	2.733695	-7.374138	6.098358
H	3.129386	-6.692759	7.682486
H	2.405375	-8.301501	7.569468
H	1.165416	-5.348371	5.510312
H	-0.119904	-4.927457	6.611908
H	1.599342	-4.136661	8.314257
H	2.878725	-4.454697	7.134146
H	1.647840	-3.238196	6.791692
H	0.213345	-7.750756	5.467500
H	-8.063589	-2.525955	-4.003988
H	-5.745161	-2.530632	-3.040914
H	-6.317848	-0.881322	-3.307963
H	-6.307694	-1.561351	-1.675710
H	-8.023055	-3.415421	-1.082551
H	-9.279163	-3.834842	-2.234685
H	-7.574486	-5.030052	-3.671790
H	-6.323518	-4.672999	-2.475686
H	-7.681195	-5.712138	-2.043572
H	-8.864979	-0.968729	-1.485682
H	-5.781133	-3.775370	4.484679
H	-7.472169	-4.033987	4.960991
H	-9.282840	-2.592566	4.030543
H	-5.199489	-2.008277	2.834813
H	-10.034971	-1.095088	2.208706
H	-5.935851	-0.513766	1.022930
H	-8.363858	-0.030128	0.701544
H	2.418066	-8.112783	-0.217669
H	2.289920	-5.916643	3.475559
H	1.483531	-6.153353	-1.411378
H	1.332143	-3.965023	2.288807
H	0.275123	-2.764597	0.380867
H	-1.637078	9.580860	2.821160
H	-1.533497	8.394826	4.122057
H	-3.383858	8.162438	1.672016
H	-3.835097	4.818541	7.253665
H	-5.160963	5.090396	6.116735
H	-3.475372	2.556049	6.170344
H	-5.365448	1.489650	7.432005
H	-4.601013	2.794944	8.355656
H	-6.161521	3.065212	7.558816
H	-5.365399	1.554290	4.875578
H	-4.743223	2.966009	4.017973
H	-6.244666	3.088401	4.943634
H	-3.258656	6.193059	5.185575
H	1.059771	4.918007	2.803946
H	3.322499	3.800787	2.937052
H	3.115313	3.600145	4.676421
H	3.228228	5.229156	3.990195
H	1.127128	2.484144	2.342987
H	1.039783	2.124791	4.081168
H	-0.333940	2.868030	3.248057
H	0.747119	4.176740	5.749288
H	-4.058786	5.093400	-1.714689
H	-3.934145	5.097455	0.049968
H	-1.929467	3.606054	-2.760394
H	0.984468	4.655319	0.054007
H	-4.379192	5.931874	-6.924049
H	-5.554683	6.325198	-5.680675
H	-6.537147	4.523251	-4.557417
H	-2.538824	4.056367	-6.056321
H	-6.510447	2.179933	-3.758337
H	-2.497465	1.722506	-5.227471
H	-4.479805	0.774896	-4.087227
H	10.822067	0.361985	-1.917546
H	10.614895	1.890046	-1.050439
H	9.262908	-0.760879	-0.246840
H	9.167540	0.737471	0.656526
H	11.710476	-0.885019	0.179409
H	12.741730	0.578093	1.935096
H	12.266090	1.522311	0.518673
H	11.270129	1.559953	1.980016
H	11.502369	-1.539764	2.579226
H	10.069128	-2.051097	1.663688
H	9.991078	-0.628079	2.708132
H	0.450043	2.093352	-0.733990
H	6.667921	6.218866	1.015875
H	2.702978	6.911222	-1.184378
H	2.512893	7.620991	0.422369
H	-3.902845	8.475680	3.333502
H	-9.971925	-1.539104	-2.743001
H	3.338766	-0.344855	-7.085273
H	6.047031	-0.660916	-3.963557
H	4.486302	3.405781	-2.724067
H	2.842210	-8.010225	2.239752
H	-0.053784	-8.598075	7.000195
H	-6.555624	-2.675610	5.616819
H	1.130500	5.792326	5.138687
H	-3.803167	-5.675158	5.536611
H	-1.075480	5.816538	0.779599
H	0.129446	0.625917	-4.150048
H	-1.043954	-7.187899	6.569194
H	-1.047200	5.555679	3.825329
H	1.677709	-1.289023	-4.056908
H	3.794900	5.753835	1.261519
H	4.498837	0.156881	-1.612317
H	9.231696	1.126853	-1.832816
H	3.813660	-4.233881	1.155834
C	-0.012431	0.234760	-0.248383
C	0.615106	-0.794736	0.698902
H	0.767416	-0.320824	1.677850
H	0.000547	-0.186418	-1.265577
C	-1.454171	0.590075	0.087792
C	-1.874040	0.812878	1.407172
C	-2.379377	0.773252	-0.946418
C	-3.175509	1.228389	1.679119
H	-1.187975	0.646641	2.230099
C	-3.682081	1.202130	-0.680206
H	-2.069780	0.593226	-1.973535
C	-4.080831	1.440827	0.634806
H	-3.484378	1.388607	2.707816
H	-4.372336	1.369711	-1.502119
H	-5.087539	1.790031	0.849802
H	1.608615	-1.052993	0.310831
H	-3.499638	6.547241	-0.863721
H	-3.181726	6.910001	2.893771
H	-3.385516	4.738234	4.226682
H	-8.771105	-0.291995	-3.118646
H	-1.496231	-3.881048	-7.110931
C	-3.506226	6.790930	-5.143100
H	-2.492612	6.414745	-5.308023
H	-3.550665	7.817690	-5.522582
H	-3.670165	6.817600	-4.061832