279			
			
C	-3.093475	-0.349016	5.973609
C	-2.143571	-1.545855	5.876580
O	-1.737172	-2.138100	6.876442
N	-1.761456	-1.921831	4.612412
C	-0.682071	-2.890921	4.426605
C	0.665387	-2.228394	4.792426
O	0.883641	-1.041811	4.489582
C	-0.710805	-3.400704	2.960936
C	0.228050	-4.550998	2.668236
C	-0.070532	-5.846570	3.117124
C	1.399455	-4.353908	1.926684
C	0.793076	-6.912613	2.860601
C	2.264782	-5.418434	1.667914
C	1.969635	-6.698807	2.139174
N	1.606490	-2.960788	5.432649
C	1.490865	-4.337641	5.964994
C	2.933228	-4.688645	6.343937
C	3.518032	-3.338528	6.784735
C	2.894785	-2.345265	5.795123
C	-3.833748	2.731717	2.650213
C	-4.833332	1.662932	3.116612
O	-5.346840	1.732525	4.235020
C	-2.518418	2.704169	3.452927
C	-1.783265	1.378191	3.424129
O	-1.387993	1.723539	-0.050060
O	-2.158488	0.382888	2.821412
N	-5.132225	0.673926	2.218257
C	-6.002464	-0.451050	2.565880
C	-5.293439	-1.820421	2.679073
C	-5.199288	-2.591469	1.394842
C	-4.084665	-2.840523	0.625230
C	-6.294841	-3.260304	0.736434
C	-5.759287	-3.897838	-0.421217
C	-7.666711	-3.404272	1.013275
N	-4.416194	-3.620963	-0.458666
C	-6.551821	-4.660198	-1.287173
C	-8.457824	-4.156770	0.151342
C	-7.904447	-4.777526	-0.989162
C	-10.066105	1.849106	0.870428
C	-9.653007	0.782282	-0.149729
C	-10.810443	0.171075	-0.964097
C	-11.542981	1.214850	-1.820898
C	-10.304072	-0.986669	-1.836534
C	-2.542809	7.903868	0.917032
C	-3.961665	7.573108	0.488358
O	-4.948866	8.084609	1.013772
N	-4.066315	6.640913	-0.510570
C	-5.351347	6.160674	-0.994235
C	-5.747187	4.763370	-0.479797
C	-7.185823	4.440299	-0.905981
C	-4.777613	3.671780	-0.950481
C	3.053836	-4.608152	-5.306959
C	2.405066	-4.588074	-4.067190
C	2.967921	-3.475525	-6.125394
C	1.673012	-3.477470	-3.644191
C	2.238509	-2.359698	-5.722034
C	1.570699	-2.350314	-4.482227
O	0.859222	-1.249048	-4.171568
C	-0.236529	-6.904594	-7.120571
C	-1.214459	-5.765594	-7.449037
C	-0.924443	-4.543217	-6.557186
C	-2.666444	-6.252946	-7.331442
C	-1.721133	-3.278130	-6.892060
C	8.684616	-2.031582	2.846030
C	7.520165	-2.997339	3.112002
C	7.520147	-4.158199	2.095934
C	6.182541	-2.241159	3.122986
C	6.573749	-5.311134	2.450851
C	6.686643	-3.319610	-4.654308
C	7.205280	-2.609249	-3.426262
C	8.580142	-2.426930	-3.223168
C	6.321471	-2.080320	-2.476532
C	9.057954	-1.722958	-2.117411
C	6.794798	-1.375576	-1.367670
C	8.165332	-1.187867	-1.185910
C	-2.899643	-6.612930	-2.405142
C	-2.829938	-5.359699	-3.022388
C	-2.119316	-6.829310	-1.260112
C	-2.021003	-4.341178	-2.510087
C	-1.303054	-5.834253	-0.740098
C	-1.219633	-4.537635	-1.338933
O	-0.464150	-3.608218	-0.832932
C	3.940369	8.019593	-1.917811
C	2.605019	8.699838	-2.246430
C	1.382281	7.977934	-1.629198
O	1.427047	6.689832	-1.713170
O	0.469595	8.652847	-1.134223
C	3.886049	5.344383	-4.657608
C	2.426896	5.199611	-5.146240
O	2.180267	4.914384	-6.322979
C	4.881846	4.604692	-5.557232
C	4.781025	3.066707	-5.542043
C	5.697690	2.466336	-6.617989
C	5.101667	2.463585	-4.166716
N	1.473825	5.417138	-4.206159
C	0.041717	5.391948	-4.498867
C	-0.662286	4.088557	-4.071956
C	-2.176838	4.227131	-4.281573
C	-0.110085	2.862152	-4.807829
C	3.867444	5.193878	1.471565
C	2.510458	4.588324	1.267010
C	1.875682	3.525258	1.875537
N	1.611945	5.048539	0.325644
C	0.515197	4.265202	0.401140
N	0.624013	3.323950	1.329293
C	4.736265	5.161703	6.503115
C	4.514021	3.751687	5.991454
C	3.273739	3.118097	6.162968
C	5.520814	3.063930	5.303071
C	3.041341	1.842446	5.652530
C	5.298546	1.780258	4.798001
C	4.056888	1.170375	4.969488
O	-0.680097	1.389857	4.184090
O	-0.455477	-1.319116	-1.871273
H	-3.753620	-0.232836	5.114595
H	-2.492855	0.560918	6.069737
H	-1.742855	-3.708473	2.760596
H	-0.490718	-2.571073	2.283498
H	-0.996110	-6.022041	3.661547
H	1.617027	-3.369639	1.524301
H	0.539652	-7.910089	3.210455
H	3.158656	-5.249320	1.074317
H	2.640105	-7.527458	1.927968
H	-0.877643	-3.718659	5.111833
H	2.979933	-5.459910	7.118151
H	3.463348	-5.062603	5.460803
H	3.195014	-3.104383	7.805793
H	4.610935	-3.310877	6.764578
H	2.736890	-1.350136	6.216413
H	3.512061	-2.231226	4.896475
H	1.080311	-5.016618	5.218996
H	-2.703242	2.947716	4.505381
H	-1.820959	3.456407	3.067843
H	-3.598630	2.617721	1.588182
H	-5.862920	-2.418441	3.404628
H	-4.300896	-1.676549	3.116095
H	-3.058489	-2.530985	0.766600
H	-8.103706	-2.940650	1.894475
H	-9.517808	-4.276699	0.361029
H	-6.113173	-5.149905	-2.151226
H	-8.546335	-5.363205	-1.642082
H	-6.811823	-0.520408	1.829121
H	-2.557831	8.859882	1.442003
H	-5.715620	4.808154	0.617491
H	-7.498510	3.465963	-0.516271
H	-7.892955	5.193261	-0.539827
H	-7.272426	4.402218	-1.999479
H	-5.063682	2.695363	-0.545882
H	-3.747459	3.860365	-0.633540
H	-4.780509	3.588208	-2.044821
H	-5.340735	6.155348	-2.093549
H	2.456829	-5.455224	-3.413436
H	3.469805	-3.461358	-7.090615
H	1.171049	-3.486699	-2.679933
H	2.160180	-1.479270	-6.352599
H	0.391688	-1.311341	-3.285562
H	-1.043462	-5.466107	-8.496107
H	-2.892519	-6.538826	-6.296978
H	-3.382658	-5.479421	-7.626952
H	-2.844528	-7.129384	-7.966774
H	-1.099568	-4.815922	-5.508440
H	0.143208	-4.308784	-6.629721
H	-1.580468	-2.982802	-7.939924
H	-2.796529	-3.406997	-6.726046
H	-1.387852	-2.445147	-6.265340
H	-0.380768	-7.251419	-6.090441
H	7.674252	-3.433721	4.112130
H	5.335098	-2.900495	3.334246
H	6.186426	-1.452321	3.883546
H	5.994800	-1.772431	2.150355
H	7.259031	-3.774786	1.099167
H	8.542676	-4.551757	2.013118
H	6.803384	-5.723881	3.441025
H	5.525645	-4.996144	2.458813
H	6.660797	-6.125791	1.724223
H	8.600170	-1.587722	1.846484
H	5.705149	-3.768956	-4.483321
H	7.376427	-4.103771	-4.984915
H	9.283317	-2.837094	-3.945226
H	5.250864	-2.214347	-2.608415
H	10.128641	-1.588664	-1.984392
H	6.080460	-0.971016	-0.657643
H	8.536344	-0.623024	-0.335297
H	-2.155182	-7.798153	-0.763044
H	-3.420866	-5.163684	-3.916122
H	-0.702245	-6.016318	0.145705
H	-1.978647	-3.371991	-3.000565
H	-0.476076	-2.287266	-1.479721
H	2.596568	9.745044	-1.920117
H	2.461436	8.703776	-3.336903
H	4.149399	8.066428	-0.841954
H	4.717211	4.950222	-6.583621
H	5.903931	4.897978	-5.274459
H	3.747180	2.808261	-5.802515
H	5.616232	1.373912	-6.645676
H	5.444296	2.848334	-7.613248
H	6.749717	2.714342	-6.422078
H	5.040626	1.370099	-4.195012
H	4.408245	2.807883	-3.393637
H	6.118447	2.729621	-3.847956
H	4.125967	6.415852	-4.659799
H	-0.476864	3.956945	-2.996378
H	-2.705502	3.332336	-3.936804
H	-2.414436	4.365037	-5.344434
H	-2.582311	5.089095	-3.737713
H	-0.598537	1.942374	-4.469101
H	-0.261443	2.952940	-5.889645
H	0.963184	2.749711	-4.636257
H	-0.083960	5.543662	-5.576530
H	4.400658	4.651736	2.258104
H	4.477323	5.147431	0.559953
H	2.257744	2.898948	2.670099
H	-0.335911	4.402627	-0.249958
H	4.579453	5.190644	7.590097
H	5.780383	5.449742	6.333497
H	6.486636	3.542091	5.154793
H	2.475162	3.636117	6.688368
H	6.090314	1.269283	4.256136
H	2.067263	1.375333	5.759958
H	3.872222	0.177644	4.575958
H	-10.824639	1.463236	1.562775
H	-10.479641	2.741265	0.389041
H	-9.134834	-0.031178	0.373780
H	-8.915861	1.207871	-0.845324
H	-11.536541	-0.241212	-0.245068
H	-12.357188	0.752474	-2.390944
H	-11.977269	2.016217	-1.214874
H	-10.856281	1.676997	-2.541230
H	-11.126722	-1.458576	-2.386797
H	-9.810234	-1.758544	-1.237490
H	-9.575496	-0.629249	-2.574482
H	-0.587097	2.014229	0.434489
H	-6.088978	6.897382	-0.666137
H	-2.189173	7.137672	1.617109
H	-1.818859	7.956381	0.094414
H	4.780583	8.496817	-2.437781
H	9.650573	-2.545895	2.897652
H	-3.687117	-0.459878	6.882220
H	-6.443831	-0.176040	3.526814
H	-4.312321	3.703802	2.798074
H	-3.535854	-7.397521	-2.805053
H	-0.380256	-7.764413	-7.786862
H	6.568734	-2.617907	-5.489481
H	-0.411544	6.236604	-3.968614
H	3.613453	-5.483079	-5.626197
H	1.689901	5.807654	-0.395901
H	-0.233519	0.511602	4.136130
H	0.802884	-6.571124	-7.210187
H	1.718982	5.788119	-3.277779
H	-1.920697	-1.265787	3.848046
H	-3.217688	6.273795	-0.915050
H	-4.494909	0.559579	1.440831
H	-9.208680	2.170971	1.469390
H	-3.754960	-3.948612	-1.159819
C	-0.375847	-0.424499	-0.767892
C	-1.040413	0.913950	-1.158959
H	-0.392269	1.448596	-1.872148
H	-0.971990	-0.826619	0.063694
C	1.054483	-0.234675	-0.281863
C	1.364666	-0.323136	1.078593
C	2.086118	0.061081	-1.185858
C	2.668907	-0.121284	1.534632
H	0.577627	-0.534615	1.795044
C	3.386072	0.281562	-0.732660
H	1.870415	0.111464	-2.248638
C	3.683024	0.191194	0.630944
H	2.870928	-0.201559	2.597301
H	4.167056	0.531485	-1.446027
H	4.692115	0.384685	0.987442
H	-1.971008	0.671223	-1.684531
H	3.809659	6.249758	1.766200
H	3.908040	6.966418	-2.198181
H	3.960776	5.021711	-3.613678
H	8.698649	-1.212849	3.574185
H	0.832501	-4.336897	6.845028
C	3.802291	6.188863	5.834758
H	2.751197	5.947007	6.015616
H	3.986698	7.197256	6.221913
H	3.951224	6.206122	4.751179
