279			
			
C	3.070894	0.374634	-5.893810
C	2.335585	-0.967595	-5.842648
O	2.223731	-1.682683	-6.840971
N	1.800718	-1.310014	-4.629509
C	0.975495	-2.505542	-4.485519
C	-0.519138	-2.127232	-4.598338
O	-0.970533	-1.146155	-3.993759
C	1.257146	-3.178920	-3.117519
C	0.554438	-4.505766	-2.935227
C	1.141880	-5.696361	-3.388854
C	-0.707560	-4.576772	-2.328131
C	0.485673	-6.921307	-3.250706
C	-1.368048	-5.798399	-2.190512
C	-0.775489	-6.975428	-2.653231
N	-1.339285	-2.900394	-5.354851
C	-1.008961	-4.123732	-6.105596
C	-2.385360	-4.724222	-6.422991
C	-3.285513	-3.487072	-6.565851
C	-2.761131	-2.541391	-5.477080
C	3.437075	3.358808	-2.423294
C	4.775765	2.600668	-2.385836
O	5.837131	3.218158	-2.247588
C	2.157287	2.566623	-2.746571
C	1.832130	1.430057	-1.751564
O	1.414637	1.755080	-0.610293
O	2.036572	0.226487	-2.143568
N	4.741761	1.244037	-2.520213
C	5.967275	0.454340	-2.474762
C	5.738806	-1.009852	-2.914297
C	5.600990	-1.986770	-1.781538
C	4.474988	-2.253831	-1.039431
C	6.655053	-2.794699	-1.223202
C	6.088802	-3.540214	-0.148550
C	8.019257	-2.967389	-1.518802
N	4.764044	-3.184903	-0.060679
C	6.840261	-4.445611	0.609246
C	8.771388	-3.859028	-0.762247
C	8.185702	-4.592782	0.290988
C	9.727889	3.134987	-0.644370
C	9.543874	1.815988	0.115003
C	10.836683	1.178716	0.660102
C	11.547309	2.077545	1.683449
C	10.545686	-0.202603	1.265181
C	1.540696	8.253265	-0.456171
C	2.967573	8.137615	0.053590
O	3.843974	8.942755	-0.257931
N	3.211216	7.055180	0.855876
C	4.533499	6.764894	1.389752
C	5.222423	5.529265	0.778005
C	6.699700	5.498175	1.193685
C	4.525243	4.219545	1.166745
C	-2.542894	-5.115783	5.129874
C	-1.990393	-4.953261	3.856270
C	-2.462280	-4.055349	6.040506
C	-1.361360	-3.763700	3.488761
C	-1.836979	-2.861966	5.689985
C	-1.270708	-2.703785	4.410855
O	-0.662192	-1.535797	4.136314
C	0.993972	-7.091266	6.855387
C	1.879016	-6.012179	7.495929
C	1.768709	-4.691533	6.709420
C	3.327591	-6.508242	7.621285
C	2.504161	-3.500026	7.332051
C	-8.429009	-2.835975	-2.930630
C	-7.412841	-3.986487	-2.980533
C	-7.756904	-5.055171	-1.923820
C	-5.983911	-3.444811	-2.826056
C	-6.902037	-6.325278	-1.989086
C	-6.301894	-4.235965	4.513926
C	-6.573556	-3.404884	3.282347
C	-7.867230	-3.293428	2.756109
C	-5.536696	-2.699305	2.655078
C	-8.124882	-2.488398	1.644986
C	-5.787766	-1.893290	1.543933
C	-7.085353	-1.781381	1.038010
C	3.609669	-6.261712	2.177516
C	3.391533	-5.025816	2.788787
C	2.877733	-6.593755	1.032734
C	2.465112	-4.121631	2.263340
C	1.950398	-5.707288	0.496155
C	1.740515	-4.455046	1.101940
O	0.852316	-3.614622	0.537847
C	-4.914093	7.466152	2.336220
C	-3.632523	7.891375	1.613465
C	-2.484406	6.850689	1.652812
O	-2.848601	5.620198	1.755962
O	-1.317883	7.273294	1.554255
C	-4.546814	4.688192	4.946628
C	-3.079099	4.740785	5.431394
O	-2.807455	4.597598	6.629295
C	-5.398142	3.736653	5.795213
C	-5.197979	2.238600	5.492583
C	-5.765232	1.374037	6.627415
C	-5.821285	1.836584	4.147755
N	-2.146330	4.989192	4.480624
C	-0.734958	5.197374	4.816816
C	0.203095	4.917825	3.634898
C	1.640697	5.265016	4.045720
C	0.098728	3.465822	3.153579
C	-4.502916	4.834195	-1.182528
C	-3.136693	4.326453	-1.496245
C	-2.616904	3.775021	-2.641222
N	-2.105610	4.302354	-0.581303
C	-1.032786	3.740299	-1.195413
N	-1.303026	3.405109	-2.450675
C	-5.355570	4.940180	-6.215825
C	-5.085522	3.527421	-5.741820
C	-3.823500	2.939898	-5.910606
C	-6.084274	2.779654	-5.104748
C	-3.548207	1.660179	-5.427865
C	-5.826989	1.488138	-4.640223
C	-4.556969	0.930573	-4.792607
O	-0.331493	1.690776	-4.700271
O	0.678773	-1.398870	1.866550
H	3.691001	0.551321	-5.012084
H	2.318851	1.170876	-5.936462
H	2.340749	-3.313375	-3.043843
H	0.965341	-2.484826	-2.324596
H	2.128031	-5.660357	-3.845979
H	-1.162781	-3.667612	-1.947651
H	0.962466	-7.832373	-3.603159
H	-2.340504	-5.831633	-1.706774
H	-1.286593	-7.927567	-2.538261
H	1.259713	-3.170778	-5.302758
H	-2.364869	-5.356657	-7.315486
H	-2.718542	-5.339365	-5.579533
H	-3.148294	-3.033785	-7.554452
H	-4.349507	-3.709108	-6.444788
H	-2.863836	-1.484172	-5.730967
H	-3.268947	-2.700628	-4.517016
H	-0.392557	-4.799577	-5.510905
H	2.203112	2.149447	-3.752852
H	1.315311	3.262826	-2.735187
H	3.335293	3.839418	-1.444781
H	6.585705	-1.319258	-3.537701
H	4.858705	-1.057270	-3.565297
H	3.487379	-1.820111	-1.128222
H	8.481209	-2.409500	-2.329628
H	9.826265	-3.997352	-0.985133
H	6.380484	-5.013073	1.412805
H	8.796977	-5.285446	0.863667
H	6.406340	0.477389	-1.468217
H	1.344844	9.300478	-0.692017
H	5.180607	5.628419	-0.314038
H	7.210841	4.647439	0.732827
H	7.221232	6.411702	0.885844
H	6.803417	5.403599	2.283004
H	5.001830	3.369263	0.670233
H	3.468437	4.209286	0.879950
H	4.577965	4.053975	2.250924
H	4.465585	6.642324	2.480599
H	-2.041670	-5.764100	3.134102
H	-2.891534	-4.158913	7.034337
H	-0.931714	-3.654719	2.497764
H	-1.768278	-2.033225	6.387615
H	-0.233325	-1.536926	3.232491
H	1.499933	-5.824531	8.513381
H	3.762280	-6.687600	6.629927
H	3.966861	-5.786246	8.138979
H	3.375167	-7.451513	8.178403
H	2.132398	-4.855717	5.685622
H	0.707580	-4.435022	6.608666
H	2.176258	-3.327367	8.364668
H	3.589962	-3.643761	7.349571
H	2.303293	-2.585067	6.766371
H	1.349095	-7.335184	5.846766
H	-7.490977	-4.461819	-3.971448
H	-5.228832	-4.226616	-2.953394
H	-5.780549	-2.667204	-3.570587
H	-5.838704	-3.000253	-1.834649
H	-7.671464	-4.605797	-0.925205
H	-8.813573	-5.333168	-2.043691
H	-6.952078	-6.787548	-2.982683
H	-5.849455	-6.120500	-1.771656
H	-7.245760	-7.067156	-1.260308
H	-8.394491	-2.331842	-1.957658
H	-5.297595	-4.667576	4.491755
H	-7.029167	-5.048254	4.618148
H	-8.682537	-3.839763	3.226098
H	-4.523267	-2.783942	3.039122
H	-9.137550	-2.410239	1.257346
H	-4.971657	-1.348316	1.079406
H	-7.282912	-1.142857	0.181489
H	3.037445	-7.553231	0.547280
H	3.948161	-4.752955	3.681651
H	1.385042	-5.952593	-0.395990
H	2.283642	-3.162604	2.737957
H	0.849020	-2.732253	1.018115
H	-3.852409	8.073781	0.551035
H	-3.243341	8.836717	2.007160
H	-5.250855	6.496014	1.964579
H	-5.139686	3.928884	6.842055
H	-6.462721	3.983121	5.669737
H	-4.116327	2.051852	5.441868
H	-5.627638	0.305991	6.423577
H	-5.275527	1.603374	7.579915
H	-6.841974	1.550838	6.753388
H	-5.623551	0.785333	3.910607
H	-5.435269	2.443157	3.322406
H	-6.911152	1.969726	4.171796
H	-4.939058	5.708061	5.050640
H	-0.096112	5.580920	2.811527
H	2.341721	5.069530	3.227569
H	1.966362	4.658812	4.901662
H	1.735615	6.320233	4.326746
H	0.759696	3.282093	2.299220
H	0.376292	2.766336	3.954352
H	-0.920301	3.230171	2.837883
H	-0.498115	4.546181	5.666391
H	-5.183416	4.594468	-2.005266
H	-4.898096	4.383828	-0.265297
H	-3.121745	3.604796	-3.578095
H	-0.096880	3.538406	-0.693889
H	-5.139804	5.004961	-7.292073
H	-6.426712	5.153596	-6.110637
H	-7.070175	3.217931	-4.963918
H	-3.025543	3.503845	-6.387604
H	-6.613794	0.927472	-4.141431
H	-2.529646	1.284715	-5.481530
H	-4.341741	-0.057980	-4.397222
H	10.464902	3.027190	-1.450390
H	10.066527	3.945685	0.009409
H	9.056420	1.092365	-0.550463
H	8.844207	1.970457	0.948607
H	11.520061	1.037129	-0.192354
H	12.460289	1.601692	2.060751
H	11.829584	3.044027	1.254412
H	10.896049	2.273687	2.544539
H	11.464506	-0.687561	1.616138
H	10.067349	-0.869930	0.540605
H	9.869391	-0.114981	2.124324
H	-0.572028	2.278514	-3.950064
H	5.129239	7.659005	1.189063
H	1.444760	7.675078	-1.382576
H	0.783552	7.887827	0.246343
H	-5.718908	8.199814	2.197483
H	-9.452772	-3.198012	-3.081700
H	3.679843	0.398334	-6.798063
H	6.692274	0.947034	-3.132128
H	3.573821	4.169183	-3.147140
H	4.333025	-6.959050	2.590032
H	0.999272	-8.016776	7.443799
H	-6.363615	-3.623007	5.422142
H	-0.583829	6.231841	5.161629
H	-3.026898	-6.047579	5.408256
H	-2.174467	4.692418	0.377371
H	-0.416699	0.795855	-4.334906
H	-0.042090	-6.749761	6.761260
H	-2.430105	5.148468	3.503963
H	1.832366	-0.650164	-3.841563
H	2.432334	6.466160	1.111604
H	3.848220	0.750836	-2.475353
H	8.781859	3.443595	-1.100381
H	4.099207	-3.556349	0.604356
C	0.477048	-0.138462	0.509356
C	1.281078	-0.115853	1.721532
H	1.000887	0.594426	2.503802
H	0.943002	-0.593261	-0.355637
C	-0.930180	0.227371	0.403793
C	-1.695721	0.634421	1.510594
C	-1.532292	0.159625	-0.864102
C	-3.031158	0.983930	1.343595
H	-1.259849	0.650208	2.502985
C	-2.866628	0.521379	-1.028018
H	-0.946780	-0.152031	-1.723022
C	-3.615631	0.938814	0.072955
H	-3.615269	1.300253	2.201350
H	-3.307944	0.503135	-2.018575
H	-4.651863	1.239207	-0.056598
H	2.363796	-0.125612	1.567056
H	-4.521626	5.920438	-1.028408
H	-4.740472	7.362292	3.412154
H	-4.585746	4.460292	3.876720
H	-8.220243	-2.085508	-3.700925
H	-0.458864	-3.869880	-7.022044
C	-4.550615	6.037394	-5.493178
H	-3.473841	5.876702	-5.598042
H	-4.788480	7.024422	-5.904955
H	-4.772229	6.049704	-4.421960