279			
			
C	3.113047	-0.028256	-5.911597
C	2.235001	-1.284539	-5.824223
O	1.968243	-1.943955	-6.833118
N	1.753667	-1.587396	-4.584835
C	0.924197	-2.764872	-4.365873
C	-0.573572	-2.408774	-4.392094
O	-1.011675	-1.427049	-3.772233
C	1.308428	-3.487192	-3.044163
C	0.733285	-4.884325	-2.955216
C	1.335936	-5.947129	-3.645263
C	-0.430196	-5.141439	-2.217515
C	0.778448	-7.226354	-3.624481
C	-0.992168	-6.419734	-2.197967
C	-0.395975	-7.464542	-2.906611
N	-1.417103	-3.206388	-5.099334
C	-1.099988	-4.407265	-5.910698
C	-2.478379	-5.031695	-6.159482
C	-3.415162	-3.815468	-6.217354
C	-2.853237	-2.885670	-5.133817
C	3.551565	3.125051	-2.602791
C	4.875624	2.335284	-2.569131
O	5.947859	2.952574	-2.553983
C	2.217370	2.448607	-3.009416
C	1.676482	1.201429	-2.249693
O	1.307226	1.540219	-0.936431
O	2.237801	0.062652	-2.412438
N	4.801001	0.983328	-2.530348
C	5.992901	0.147497	-2.482194
C	5.678133	-1.340978	-2.754672
C	5.521079	-2.189391	-1.525234
C	4.361907	-2.488378	-0.845742
C	6.585495	-2.841239	-0.805566
C	5.987918	-3.530149	0.291428
C	7.979581	-2.921591	-0.974342
N	4.637227	-3.292550	0.237820
C	6.740362	-4.290972	1.193798
C	8.731316	-3.668711	-0.073799
C	8.115650	-4.348225	0.999320
C	9.823492	2.808392	-0.772033
C	9.619583	1.679036	0.244197
C	10.901398	1.172757	0.934031
C	11.599580	2.268144	1.753946
C	10.596514	-0.049666	1.811911
C	1.794155	8.172378	-0.912359
C	3.221553	8.021669	-0.413410
O	4.136570	8.735261	-0.820494
N	3.416161	7.016611	0.494950
C	4.730996	6.695932	1.030479
C	5.348600	5.390029	0.492204
C	6.825821	5.302888	0.899008
C	4.583163	4.148261	0.965497
C	-2.720982	-4.750238	5.351081
C	-2.201962	-4.840073	4.052152
C	-2.510841	-3.566547	6.069055
C	-1.485947	-3.789405	3.472727
C	-1.799261	-2.508351	5.507512
C	-1.272041	-2.606892	4.204912
O	-0.575921	-1.548377	3.745720
C	0.745537	-6.735617	7.203337
C	1.648591	-5.619182	7.747594
C	1.619620	-4.399574	6.806006
C	3.071371	-6.147028	7.987354
C	2.370573	-3.165993	7.318119
C	-8.493867	-2.729735	-2.859095
C	-7.362777	-3.761292	-2.734752
C	-7.757450	-4.877035	-1.746043
C	-6.047579	-3.071278	-2.343198
C	-6.772836	-6.048608	-1.670362
C	-6.448406	-3.792424	4.663725
C	-6.879861	-3.008428	3.447296
C	-8.220412	-2.990663	3.038166
C	-5.950986	-2.256375	2.714770
C	-8.627487	-2.233778	1.938637
C	-6.351519	-1.497386	1.613613
C	-7.693284	-1.480329	1.224803
C	3.409160	-6.236318	2.505644
C	3.143389	-4.944533	2.972411
C	2.721299	-6.679303	1.366795
C	2.228975	-4.109675	2.324220
C	1.804014	-5.867624	0.711771
C	1.512894	-4.542087	1.162489
O	0.647356	-3.788241	0.542414
C	-4.695772	7.729550	1.874403
C	-3.339061	8.191381	1.338401
C	-2.262610	7.085533	1.251042
O	-2.691877	5.878608	1.416667
O	-1.092059	7.423574	1.013517
C	-4.426192	5.085511	4.631676
C	-2.958259	5.101560	5.118348
O	-2.694288	5.001943	6.320733
C	-5.307678	4.168440	5.488604
C	-5.162165	2.661103	5.203360
C	-5.796620	1.834739	6.331258
C	-5.767764	2.269716	3.847374
N	-2.010911	5.265157	4.159916
C	-0.600050	5.472593	4.500627
C	0.357617	5.145582	3.348440
C	1.786073	5.512579	3.775786
C	0.266865	3.673790	2.929814
C	-4.346390	4.901927	-1.496106
C	-3.038939	4.194747	-1.578932
C	-2.530643	3.338707	-2.521449
N	-2.081271	4.282695	-0.590292
C	-1.056012	3.489520	-0.937853
N	-1.290506	2.904082	-2.108777
C	-5.169562	4.763902	-6.533532
C	-4.965457	3.396977	-5.910695
C	-3.797119	2.661241	-6.161751
C	-5.919233	2.848221	-5.043679
C	-3.578387	1.426280	-5.550059
C	-5.710987	1.607991	-4.435641
C	-4.536659	0.896664	-4.681979
O	0.183550	1.146540	-3.072709
O	0.581511	-1.384813	1.252201
H	3.492790	0.298792	-4.943420
H	2.528529	0.784267	-6.356544
H	2.401641	-3.534321	-3.022136
H	0.993186	-2.903761	-2.175246
H	2.251583	-5.766770	-4.203951
H	-0.857831	-4.349030	-1.612986
H	1.265036	-8.037020	-4.160954
H	-1.887625	-6.602021	-1.609950
H	-0.830791	-8.460454	-2.883309
H	1.141550	-3.430203	-5.204510
H	-2.497140	-5.641375	-7.067639
H	-2.744249	-5.675096	-5.313501
H	-3.344326	-3.333224	-7.199386
H	-4.465135	-4.067545	-6.043481
H	-2.998323	-1.825107	-5.352866
H	-3.304064	-3.080577	-4.152573
H	-0.433634	-5.080961	-5.372684
H	2.265182	2.140263	-4.056549
H	1.445714	3.222193	-2.953969
H	3.444301	3.564444	-1.604429
H	6.495172	-1.754405	-3.359364
H	4.780786	-1.408494	-3.379494
H	3.349399	-2.170893	-1.050004
H	8.465194	-2.406107	-1.799691
H	9.809266	-3.737142	-0.199061
H	6.254068	-4.822134	2.006254
H	8.727812	-4.929230	1.684496
H	6.496227	0.247244	-1.510934
H	1.632686	9.218981	-1.177142
H	5.302012	5.425328	-0.603654
H	7.284489	4.398933	0.486935
H	7.392590	6.165401	0.530616
H	6.936188	5.269373	1.991048
H	5.001086	3.240907	0.519582
H	3.524066	4.189308	0.688853
H	4.638168	4.043251	2.056780
H	4.671756	6.648262	2.127275
H	-2.345232	-5.750535	3.475208
H	-2.902813	-3.464253	7.078623
H	-1.071057	-3.881503	2.471158
H	-1.632461	-1.588078	6.058801
H	-0.275946	-1.617696	2.802535
H	1.241402	-5.298728	8.720441
H	3.534110	-6.452194	7.040638
H	3.718475	-5.391940	8.444923
H	3.063196	-7.021211	8.649786
H	2.020292	-4.693062	5.826493
H	0.574042	-4.124665	6.624298
H	2.000972	-2.855388	8.303773
H	3.447817	-3.343431	7.409694
H	2.234472	-2.322768	6.634203
H	1.116210	-7.095472	6.236112
H	-7.222734	-4.227567	-3.723229
H	-5.203088	-3.766599	-2.333016
H	-5.802959	-2.268352	-3.047820
H	-6.122215	-2.627705	-1.343780
H	-7.880338	-4.436245	-0.747286
H	-8.746059	-5.261838	-2.034223
H	-6.613169	-6.497605	-2.658409
H	-5.797219	-5.738148	-1.285213
H	-7.148895	-6.834234	-1.006331
H	-8.671779	-2.234722	-1.897029
H	-5.401751	-4.100417	4.593331
H	-7.065460	-4.686730	4.803063
H	-8.953156	-3.575584	3.590563
H	-4.904080	-2.267137	3.006765
H	-9.673364	-2.230773	1.641441
H	-5.611373	-0.921556	1.066304
H	-8.007350	-0.880839	0.374614
H	2.911944	-7.679760	0.980271
H	3.661066	-4.571159	3.854841
H	1.281758	-6.225384	-0.169887
H	2.032484	-3.111556	2.706380
H	0.626719	-2.381792	0.935861
H	-3.448025	8.603955	0.325343
H	-2.927654	9.009240	1.941751
H	-5.070356	6.882652	1.295668
H	-5.042817	4.362997	6.533407
H	-6.363150	4.450471	5.360993
H	-4.088384	2.427174	5.185774
H	-5.693116	0.760157	6.144454
H	-5.328671	2.057753	7.296238
H	-6.869276	2.053539	6.420453
H	-5.604423	1.209950	3.625760
H	-5.337112	2.849707	3.025238
H	-6.851764	2.445869	3.844952
H	-4.786487	6.117324	4.737196
H	0.078436	5.773208	2.490777
H	2.507378	5.273665	2.987540
H	2.087383	4.950334	4.669077
H	1.876882	6.580529	4.004751
H	0.963243	3.454074	2.112250
H	0.518380	3.008148	3.765381
H	-0.739392	3.418250	2.590209
H	-0.378488	4.851059	5.375532
H	-4.976569	4.618399	-2.343578
H	-4.876699	4.646617	-0.572256
H	-2.969757	3.010511	-3.449618
H	-0.170730	3.328258	-0.345784
H	-4.910358	4.719583	-7.599626
H	-6.232428	5.029647	-6.484971
H	-6.833678	3.401219	-4.840000
H	-3.042396	3.068952	-6.830463
H	-6.460714	1.204833	-3.760490
H	-2.651417	0.887100	-5.722768
H	-4.353450	-0.053133	-4.189172
H	10.575060	2.531379	-1.522090
H	10.154719	3.737729	-0.296804
H	9.142602	0.830060	-0.261585
H	8.905858	2.005064	1.014126
H	11.597151	0.853021	0.141734
H	12.508044	1.884226	2.233237
H	11.887462	3.124048	1.135428
H	10.938592	2.639194	2.547430
H	11.508060	-0.448305	2.273237
H	10.130156	-0.853792	1.233351
H	9.904886	0.214589	2.621309
H	-0.552094	1.937789	-2.618014
H	5.368330	7.543104	0.764732
H	1.674761	7.576781	-1.824856
H	1.027943	7.855034	-0.197193
H	-5.436311	8.539186	1.834870
H	-9.434097	-3.199675	-3.170956
H	3.943666	-0.246377	-6.586493
H	6.695764	0.536548	-3.228616
H	3.731079	3.964668	-3.280757
H	4.122735	-6.878554	3.014520
H	0.708561	-7.592151	7.887806
H	-6.543558	-3.187172	5.574491
H	-0.445084	6.517113	4.812986
H	-3.267574	-5.579978	5.789990
H	-2.175765	4.881071	0.280922
H	-0.143411	0.224907	-3.083497
H	-0.276992	-6.376886	7.046241
H	-2.294366	5.418274	3.185320
H	1.922281	-0.943769	-3.795305
H	2.610071	6.501989	0.817162
H	3.881322	0.529502	-2.448688
H	8.888769	3.018581	-1.302202
H	3.941300	-3.649472	0.887545
C	0.254551	-0.536675	0.151593
C	1.394027	0.514039	0.077383
H	1.417956	1.065810	1.021094
H	0.268576	-1.115790	-0.779784
C	-1.137469	0.046810	0.330538
C	-1.482037	0.700191	1.522902
C	-2.112818	-0.094536	-0.662161
C	-2.757952	1.228661	1.704425
H	-0.752166	0.776255	2.321661
C	-3.392435	0.438037	-0.484788
H	-1.872578	-0.621104	-1.581827
C	-3.717276	1.107855	0.694831
H	-3.002939	1.739461	2.630949
H	-4.131630	0.338318	-1.275601
H	-4.706911	1.535843	0.830348
H	2.332505	-0.031346	-0.034597
H	-4.227845	5.991845	-1.503257
H	-4.614829	7.399816	2.912413
H	-4.476303	4.853969	3.563424
H	-8.247209	-1.953088	-3.591625
H	-0.612622	-4.106376	-6.847440
C	-4.335482	5.873610	-5.865016
H	-3.266290	5.646726	-5.914784
H	-4.501960	6.838141	-6.357043
H	-4.597696	5.979390	-4.808018