73

C	-0.172447	2.431823	1.378697
C	0.229256	1.350432	0.370184
C	0.569118	1.968913	-1.017575
C	-0.597447	2.845191	-1.510284
C	-0.958545	3.944770	-0.502066
C	-1.296831	3.348210	0.870983
O	1.664497	2.852764	-0.824822
C	0.915397	0.892513	-2.053808
H	-1.473099	4.145148	1.603841
O	3.936648	1.443011	-0.180458
C	5.185875	1.731270	-0.176600
C	5.545297	3.217535	-0.021547
O	6.111702	0.889118	-0.266633
N	3.399967	-1.172615	-0.049470
C	4.281831	-2.141799	-0.266057
N	3.859963	-3.433721	-0.283226
N	5.564126	-1.838119	-0.489497
C	6.572896	-2.844269	-0.769663
O	1.440650	-3.680637	1.412558
C	0.652541	-2.750380	1.462436
O	0.540647	-1.932024	0.408067
C	-0.166567	-2.451217	2.699376
O	-0.810530	0.314265	0.248395
O	-3.312321	0.383345	-1.312151
C	-4.255355	-0.596094	-1.519277
C	-5.495079	-0.173460	-2.013378
C	-6.524614	-1.096216	-2.186947
C	-6.332272	-2.444762	-1.875179
C	-5.085509	-2.859175	-1.400622
C	-4.044669	-1.944147	-1.217180
O	-2.599289	0.165527	2.230267
C	-3.735237	0.657236	2.332237
N	-4.393913	1.197877	1.291836
C	-4.428798	0.684655	3.673346
H	-3.080112	-2.271966	-0.838163
H	-5.631176	0.875238	-2.258524
H	-7.482910	-0.757171	-2.569914
H	-7.134727	-3.162445	-2.010481
H	-4.915064	-3.905265	-1.162929
H	-1.112898	-1.950704	2.480679
H	0.419021	-1.784530	3.342829
H	-0.337730	-3.380294	3.243343
H	4.555470	-4.157342	-0.198052
H	2.961702	-3.630544	0.162407
H	2.419715	-1.424111	-0.005420
H	3.666673	-0.148872	-0.122205
H	5.814882	-0.819813	-0.449472
H	7.511038	-2.330348	-0.982017
H	6.311305	-3.450569	-1.645567
H	6.618751	3.370739	-0.139345
H	4.995750	3.812158	-0.757227
H	5.233479	3.561383	0.970215
H	2.486889	2.352630	-0.602746
H	-3.996999	1.131839	0.354975
H	-5.332492	1.547134	1.396562
H	-4.480989	-0.335090	4.063383
H	-5.435645	1.106748	3.637798
H	-3.820912	1.268265	4.370071
H	-2.449237	0.042823	-1.006638
H	-0.074037	-1.138386	0.483434
H	-1.454079	0.388770	0.998465
H	6.747030	-3.513036	0.085118
H	1.790649	0.315470	-1.741351
H	1.160253	1.374867	-3.004794
H	0.084516	0.200229	-2.220841
H	-1.470788	2.212185	-1.707423
H	-0.299374	3.291703	-2.465285
H	-0.105074	4.623790	-0.405606
H	-1.804133	4.535350	-0.875593
H	-0.448929	1.962249	2.330833
H	0.726149	3.029450	1.557641
H	-2.235817	2.785439	0.801898
H	1.132874	0.843810	0.734352