73

C	0.682065	-2.803056	-1.454810
C	-0.547371	-1.955748	-1.051288
C	-0.312764	-1.275974	0.319070
C	-0.081507	-2.312575	1.439542
C	0.526531	-3.645735	0.951092
C	1.436290	-3.441209	-0.265556
O	-1.625711	-2.870536	-0.878640
C	-0.886804	-0.939650	-2.149273
O	0.790073	-0.301495	0.226504
O	-3.917056	-1.434902	-0.304851
C	-5.169682	-1.707097	-0.324210
O	-6.084663	-0.850894	-0.393083
C	-5.551055	-3.193581	-0.226247
N	-3.362118	1.185395	-0.105032
C	-4.246540	2.167555	-0.235850
N	-5.531897	1.881351	-0.465423
C	-6.544896	2.904318	-0.660907
N	-3.821878	3.457386	-0.164250
O	-1.425915	3.607526	1.587210
C	-0.628744	2.683584	1.568618
C	0.193013	2.295689	2.779908
O	-0.503522	1.949232	0.456264
O	2.626010	-0.281415	2.167983
C	3.746572	-0.810639	2.250142
N	4.390269	-1.325224	1.187615
C	4.437844	-0.909859	3.589063
O	3.315402	-0.342396	-1.375408
C	4.267157	0.639121	-1.529028
C	4.064971	1.972898	-1.163417
C	5.112264	2.888879	-1.300569
C	6.357597	2.490308	-1.792021
C	6.541940	1.156662	-2.166537
C	5.506195	0.232854	-2.039213
H	1.082694	-4.120283	1.768519
H	-1.204796	-0.688198	0.562657
H	1.875508	-4.396975	-0.573906
H	-0.286868	-4.319658	0.671409
H	-1.044973	-2.510819	1.916752
H	7.164757	3.208435	-1.891406
H	7.498944	0.829647	-2.563005
H	5.636666	-0.803895	-2.333824
H	4.947337	3.923293	-1.013468
H	3.101510	2.288965	-0.771638
H	2.457554	-0.007087	-1.052179
H	1.445356	-0.440640	0.955012
H	0.108057	1.147210	0.491293
H	1.154908	1.846762	2.521694
H	-0.372998	1.553286	3.354202
H	0.333278	3.174834	3.408844
H	3.806726	-1.489814	4.267766
H	4.531272	0.094299	4.010799
H	5.427065	-1.370464	3.539119
H	5.318224	-1.705988	1.276808
H	3.997819	-1.202832	0.254766
H	-6.706374	3.512817	0.240144
H	-7.485873	2.405075	-0.894441
H	-6.295581	3.568950	-1.497026
H	-4.517790	4.171720	-0.021215
H	-2.926103	3.621250	0.300395
H	-2.382487	1.433769	-0.037268
H	-3.634870	0.167116	-0.205985
H	-5.784397	0.862806	-0.482645
H	-5.260418	-3.574952	0.758202
H	-4.997497	-3.770551	-0.972766
H	-6.624446	-3.327754	-0.365856
H	-2.460589	-2.380016	-0.684144 
H	0.552960	-1.854053	2.207794
H	1.375886	-2.194892	-2.043819
H	0.291581	-3.580705	-2.119089
H	2.281012	-2.804149	0.024219
H	-1.003912	-1.462211	-3.103704
H	-1.831913	-0.434301	-1.928662
H	-0.103265	-0.183777	-2.263600