108

N	-0.833213	2.977496	0.790628
C	-0.802051	4.211278	0.004086
C	-0.317316	3.980302	-1.407518
O	0.261849	2.970211	-1.752243
C	5.193961	5.205885	-0.316522
C	4.108903	4.388718	0.272220
N	3.964007	4.158877	1.630915
C	3.078329	3.708378	-0.314820
C	2.881189	3.362570	1.815252
N	2.322797	3.080831	0.652142
C	3.620131	-1.444657	-4.538277
C	3.085476	-0.930142	-3.211814
O	3.045473	-1.773086	-2.252632
O	2.730182	0.277884	-3.153074
C	1.017629	-4.189499	1.890870
C	2.183464	-4.470255	0.999535
N	2.713365	-3.507507	0.154758
C	2.876149	-5.640182	0.820415
C	3.690348	-4.084293	-0.526108
N	3.828064	-5.376147	-0.148930
C	7.424173	0.598189	1.595959
C	6.138480	0.290565	0.916151
N	5.778673	0.880433	-0.283984
C	5.091917	-0.545345	1.217700
C	4.568763	0.391268	-0.658520
N	4.125622	-0.476187	0.233666
C	1.531202	-0.193215	4.179705
C	1.306066	-0.095867	2.673291
O	0.856541	1.036606	2.277241
O	1.567604	-1.082353	1.947681
C	-2.832628	-1.080221	5.256722
C	-2.637968	-0.966888	3.780457
N	-1.621135	-1.614984	3.095669
C	-3.332035	-0.294499	2.807110
C	-1.720923	-1.323901	1.776815
N	-2.760320	-0.529483	1.567249
C	-8.964612	-0.352260	-1.230944
C	-7.736917	-0.346715	-0.403855
N	-7.594413	-0.993273	0.813124
C	-6.513287	0.201721	-0.658199
C	-6.311987	-0.822966	1.234024
N	-5.630003	-0.104854	0.358691
C	-4.807256	3.910084	-1.131751
C	-4.086879	2.636724	-0.706022
O	-4.086432	1.652432	-1.522748
O	-3.560335	2.559281	0.436502
Zn	2.139640	-1.481335	-0.332215
Zn	-3.500163	0.045537	-0.361835
Zn	0.767301	1.632201	0.320247
O	1.325423	0.270222	-0.869226
O	-1.717653	-0.436703	-1.287335
H	-1.785685	4.697965	-0.036619
H	-0.703790	3.182346	1.778658
H	-1.782699	2.580563	0.706377
H	6.188027	4.807016	-0.079691
H	5.094537	5.223816	-1.403961
H	2.842557	3.613168	-1.364272
H	4.562976	4.517816	2.360118
H	2.541778	2.996380	2.772197
H	3.921560	-0.617662	-5.183501
H	2.827481	-2.008132	-5.043951
H	1.678732	-1.227162	4.498623
H	0.697342	0.260605	4.721678
H	-3.684668	-0.471536	5.567032
H	-1.955128	-0.730871	5.813071
H	-4.183283	0.360225	2.915896
H	-0.880229	-2.170509	3.498467
H	-1.028724	-1.685928	1.026467
H	-9.823809	0.090040	-0.712323
H	-9.251139	-1.366117	-1.535288
H	-6.192717	0.772517	-1.515284
H	-8.319988	-1.485680	1.313669
H	-5.928120	-1.233028	2.156223
H	-4.537812	4.749952	-0.489684
H	-5.886369	3.742291	-1.044980
H	1.233201	-3.328453	2.528749
H	0.139839	-3.942760	1.284595
H	2.776098	-6.610536	1.280194
H	4.258821	-3.601459	-1.306222
H	7.505262	0.026137	2.523252
H	8.290511	0.339398	0.974961
H	4.978459	-1.190864	2.076522
H	4.055086	0.673584	-1.569085
H	4.457305	-2.130962	-4.384296
H	0.788638	-5.061643	2.509874
H	2.433158	0.371069	4.442187
H	7.513540	1.660682	1.855903
H	5.169096	6.244760	0.033642
H	-8.792390	0.228118	-2.139497
H	-3.029316	-2.114163	5.563232
H	4.493507	-6.032647	-0.527350
H	6.338475	1.527067	-0.818743
H	-0.112520	4.942480	0.448411
H	-4.598265	4.139629	-2.179437
P	-0.829960	-1.567958	-1.738041
O	-0.036514	-1.194601	-3.052382
O	-1.902946	-2.716855	-2.277625
C	-0.472739	-0.160876	-3.953113
H	-1.161345	-0.583949	-4.691751
H	-0.961435	0.643240	-3.400342
H	0.429606	0.214595	-4.435367
H	1.707290	0.477293	-1.749553
O	0.065446	-2.279803	-0.767408
H	-0.494941	4.806913	-2.122515
O	-4.228380	-1.735244	-1.437435
H	-3.473293	-2.238314	-1.816944
H	-4.798600	-2.359248	-0.974879
H	-1.484220	-3.584536	-2.298878