105

N	-1.035429	2.846306	1.193191
C	-1.073530	4.116893	0.474154
C	-0.610317	3.995530	-0.955200
O	0.022327	3.043586	-1.375848
C	4.880652	5.372110	0.346364
C	3.856733	4.351706	0.709807
N	3.748513	3.806598	1.979688
C	2.858407	3.747382	-0.012178
C	2.721077	2.919414	1.980760
N	2.158022	2.862602	0.786996
C	3.587842	-0.721192	-4.726125
C	2.984251	-0.574470	-3.368024
O	2.984396	-1.485922	-2.534693
O	2.472276	0.624716	-3.162783
C	1.062970	-4.383671	1.261561
C	2.252474	-4.606275	0.385216
N	2.894618	-3.557746	-0.259664
C	2.871131	-5.776745	0.030361
C	3.862704	-4.084759	-0.992537
N	3.888001	-5.426880	-0.840291
C	7.279407	0.641220	1.660500
C	6.056519	0.358546	0.870109
N	5.707941	1.099963	-0.245396
C	5.064692	-0.579784	0.990712
C	4.553918	0.599929	-0.748822
N	4.140180	-0.423372	-0.023234
C	1.409225	-0.706073	4.059451
C	1.377364	-0.460632	2.555982
O	0.778194	0.601978	2.192299
O	1.953409	-1.290693	1.803139
C	-2.921918	-1.892041	4.967431
C	-2.827089	-1.679058	3.497617
N	-2.219394	-2.580860	2.634713
C	-3.275425	-0.668389	2.685558
C	-2.319996	-2.100974	1.367624
N	-2.956152	-0.944785	1.372914
C	-9.045898	-0.551709	-1.429550
C	-7.724707	-0.626330	-0.755819
N	-7.473893	-1.422358	0.350177
C	-6.529188	-0.014742	-1.024461
C	-6.166811	-1.270332	0.693873
N	-5.570216	-0.423697	-0.121250
C	-5.058364	3.815540	-0.731166
C	-4.165457	2.650111	-0.313366
O	-3.921513	1.778312	-1.215935
O	-3.738782	2.598611	0.868221
Zn	2.258400	-1.524732	-0.299334
Zn	-3.379743	-0.100506	-0.580763
Zn	0.400290	1.512807	0.377956
O	1.218483	0.261551	-1.038196
O	-1.191309	0.266196	-0.652414
H	-2.081883	4.551094	0.478627
H	-0.852135	3.001135	2.180870
H	-1.993816	2.444485	1.127515
H	5.901985	5.012533	0.520305
H	4.792495	5.627422	-0.711858
H	2.600365	3.890488	-1.051009
H	4.323649	4.040917	2.775866
H	2.414817	2.338684	2.837052
H	4.115321	0.190418	-5.016158
H	2.780152	-0.872298	-5.450843
H	1.832676	-1.682801	4.296718
H	0.397688	-0.623094	4.465781
H	-3.433712	-1.045992	5.431625
H	-1.935455	-1.981040	5.438858
H	-3.801650	0.235665	2.955652
H	-1.775037	-3.447858	2.897163
H	-1.922995	-2.580860	0.483237
H	-9.835566	-0.195117	-0.757010
H	-9.362102	-1.524704	-1.824490
H	-6.287283	0.688793	-1.806628
H	-8.144829	-2.013081	0.818428
H	-5.702263	-1.781814	1.523158
H	-5.014829	4.628138	-0.003743
H	-6.092903	3.459817	-0.790068
H	1.301004	-3.677283	2.061272
H	0.249895	-3.952354	0.669847
H	2.676885	-6.801101	0.305206
H	4.520971	-3.535821	-1.647534
H	7.351729	-0.051208	2.502111
H	8.191497	0.527382	1.062600
H	4.952664	-1.348781	1.739911
H	4.056633	1.012814	-1.611516
H	4.255439	-1.582296	-4.763516
H	0.732447	-5.330135	1.698682
H	2.013416	0.068643	4.544255
H	7.279784	1.658969	2.069843
H	4.758151	6.298033	0.920256
H	-8.991111	0.142289	-2.271030
H	-3.487002	-2.798182	5.218041
H	4.521367	-6.061432	-1.302749
H	6.228060	1.874187	-0.630369
H	-0.412961	4.863230	0.939481
H	-4.785302	4.173555	-1.727363
P	-0.127170	-0.593517	-1.328789
O	-0.273979	-0.657420	-2.902683
C	-1.265985	0.093510	-3.641496
H	-2.247365	-0.331094	-3.419195
H	-1.221125	1.152875	-3.375171
H	-1.005027	-0.035235	-4.693470
H	1.913119	0.588134	-2.296473
O	0.217770	-1.961904	-0.785157
H	-0.846489	4.847041	-1.619160
O	-3.103662	-1.573418	-1.812310
H	-3.874553	-2.070873	-2.091016