105

N	-0.977303	2.844325	1.046294
C	-0.887872	4.137370	0.372962
C	-0.438062	4.020957	-1.063994
O	0.080802	3.022420	-1.518273
C	5.097146	5.196513	0.053719
C	3.986250	4.340504	0.561260
N	3.814380	4.029088	1.901568
C	2.951915	3.704853	-0.077237
C	2.716600	3.236998	2.020163
N	2.166904	3.028833	0.837963
C	3.505159	-1.106816	-4.664699
C	2.921744	-0.697839	-3.329270
O	2.828120	-1.628950	-2.460589
O	2.617179	0.513564	-3.164668
C	1.007482	-4.374177	1.558412
C	2.051906	-4.615160	0.520306
N	2.532752	-3.594674	-0.283215
C	2.655018	-5.789185	0.149423
C	3.394226	-4.139828	-1.128102
N	3.502668	-5.467529	-0.896043
C	7.380773	0.466684	1.562382
C	6.125475	0.137874	0.842680
N	5.746544	0.802404	-0.310475
C	5.123447	-0.773542	1.063222
C	4.566919	0.286237	-0.736190
N	4.163459	-0.674372	0.076348
C	1.528615	-0.569777	4.152210
C	1.268528	-0.368572	2.651157
O	0.737769	0.754032	2.335596
O	1.592831	-1.281482	1.854136
C	-2.814673	-1.570548	5.212428
C	-2.705723	-1.406532	3.739909
N	-1.684624	-1.974488	2.997875
C	-3.465722	-0.728062	2.823552
C	-1.838027	-1.625876	1.701457
N	-2.919449	-0.871706	1.558788
C	-9.039307	-0.370305	-1.114843
C	-7.631720	-0.656020	-0.716484
N	-7.267910	-1.671232	0.156308
C	-6.454524	-0.034427	-1.036534
C	-5.924968	-1.625226	0.337076
N	-5.401655	-0.638088	-0.371250
C	-4.906428	3.899651	-0.730341
C	-4.221612	2.554035	-0.608933
O	-4.157672	1.787594	-1.608337
O	-3.764890	2.178116	0.532212
Zn	2.103063	-1.491271	-0.454729
Zn	-3.413181	0.180385	-0.268521
Zn	0.557765	1.488089	0.400752
O	1.463340	0.353489	-0.812903
O	-1.412627	0.265791	-0.784482
H	-1.834447	4.695964	0.396122
H	-0.845599	2.951100	2.048941
H	-1.923474	2.466503	0.910630
H	6.081974	4.777581	0.293083
H	5.027737	5.285621	-1.032552
H	2.733085	3.672124	-1.134330
H	4.407880	4.330728	2.660495
H	2.367034	2.818499	2.952154
H	3.562363	-0.258318	-5.348236
H	2.892862	-1.895971	-5.113210
H	1.674067	-1.625266	4.391444
H	0.713960	-0.146751	4.745210
H	-3.685821	-1.028755	5.587371
H	-1.932569	-1.177804	5.731713
H	-4.353808	-0.137496	2.993836
H	-0.907927	-2.512744	3.354112
H	-1.145640	-1.913684	0.920164
H	-9.657989	-0.093013	-0.253504
H	-9.512337	-1.230161	-1.602940
H	-6.281904	0.802838	-1.693397
H	-7.895075	-2.337270	0.583701
H	-5.379406	-2.299677	0.979080
H	-4.533866	4.605521	0.014498
H	-5.976939	3.757493	-0.544235
H	1.293258	-3.529712	2.190395
H	0.054033	-4.125645	1.078328
H	2.554565	-6.796374	0.521425
H	3.896850	-3.600325	-1.915984
H	7.486757	-0.167960	2.445536
H	8.268916	0.308112	0.938255
H	5.037088	-1.490416	1.866750
H	4.037769	0.639182	-1.610794
H	4.506992	-1.525962	-4.520433
H	0.862690	-5.266817	2.173797
H	2.445805	-0.036273	4.425851
H	7.402759	1.509711	1.903403
H	5.060929	6.209128	0.472257
H	-9.057994	0.462391	-1.820709
H	-2.927446	-2.622016	5.502115
H	4.087730	-6.108377	-1.409892
H	6.268588	1.528823	-0.776243
H	-0.144848	4.776839	0.868712
H	-4.792533	4.301585	-1.738608
P	-0.978633	-0.978821	-1.561708
O	-0.424628	-0.650723	-3.003748
O	-2.483913	-1.611058	-1.833935
C	-0.899691	0.478927	-3.761156
H	-1.982524	0.416021	-3.907613
H	-0.637225	1.405726	-3.250408
H	-0.387687	0.427315	-4.721753
H	1.778953	0.608093	-1.710573
O	-0.134693	-2.028772	-0.913804
H	-0.580346	4.924552	-1.687998
H	-2.457716	-2.520795	-2.151387