306

C	-2.15796000		9.47621900	1.01847000
C	-2.33126800		9.09840000	-0.44768000
C	-1.91216900		7.70476600	-0.82238900
C	-2.74385600		6.63370700	-1.04021200
C	-0.57324700		7.22055200	-1.05719000
C	-0.67950400		5.84442700	-1.40739300
C	0.70191600		7.81462800	-1.02286300
N	-2.01931200		5.51337500	-1.40287000
C	0.44204700		5.06227900	-1.70807400
C	1.81631800		7.04070600	-1.31936000
C	1.68747500		5.67663100	-1.65612200
C	0.34170100		5.75202700	3.94215700
C	0.36963800		5.19756900	2.51680700
C	1.71088200		4.51358500	2.21734500
C	-0.81396200		4.25343100	2.26726200
N	-4.34693800		-1.79171900	-1.90336300
N	-6.66811400		-1.67543900	-2.22922600
N	-5.34287400		0.22623700	-2.36221600
N	-7.22538100		2.36015500	-4.66167600
C	1.50479400		2.16250700	6.61621700
C	1.45780200		0.90915500	5.74033900
C	2.87830300		0.48304300	5.30648500
C	0.50651800		1.07473300	4.55173100
C	3.00648200		-1.00291600	4.95528700
C	-3.64960800		-0.48384200	8.39863300
C	-3.11284500		-1.90819900	8.30375300
C	-2.69437400		-2.32374900	6.90727700
C	-3.63868700		-2.42782900	5.87399600
C	-1.35684400		-2.61384900	6.61379100
C	-3.25633700		-2.80270800	4.58614500
C	-0.97008500		-2.99903800	5.32795300
C	-1.91759600		-3.09381500	4.30876000
C	11.72658900		-1.70492400	-3.82977700
C	11.63528200		-0.27421200	-3.26622800
C	10.22151400		0.20610300	-3.00140800
C	9.47921900		0.87493200	-3.98578200
C	9.60153400		0.00345100	-1.76088700
C	8.18351900		1.32576400	-3.74693800
C	8.30566500		0.44862100	-1.50039500
C	7.57638400		1.12430900	-2.49525000
C	10.96041500		-3.55018300	2.48977800
C	9.78717800		-3.44989800	3.47975800
C	8.89637300		-2.25833500	3.20470900
C	9.00058300		-1.07333300	3.94545200
C	7.97569600		-2.28127900	2.14892500
C	8.23328200		0.04882000	3.64256800
C	7.20198700		-1.16956800	1.82850400
C	7.32862800		0.02046100	2.56880600
C	6.22021200		-3.10230800	-3.95194600
C	6.91588200		-3.44484800	-2.62311600
C	-2.17351700		-1.62435400	0.90930000
C	-0.77554600		-1.22479900	0.96796000
C	-0.21433000		-0.15507600	0.33529900
C	1.18898900		0.17775400	0.31112000
C	1.70858900		1.03780100	-0.68650100
C	3.06197800		1.30008700	-0.79663900
C	4.00136300		0.74170600	0.12096200
C	3.46432400		-0.07546300	1.16637200
C	2.11688300		-0.35869500	1.23625400
O	6.32988700		1.60283300	-2.30471600
O	6.61345000		1.12983400	2.29903400
O	3.15756300		-5.53918400	1.12362200
O	-2.49497200		0.73768300	-2.27909500
O	-3.29270400		1.88010200	0.84989000
O	-3.45404800		2.85023300	-1.17560500
O	-7.48647300		0.45988300	1.84512600
O	-5.83043000		0.60756800	4.07598400
O	-6.95655200		-3.49222100	-0.01657100
O	-3.13463800		-0.71164200	0.58992800
O	-2.54937400		-2.77934900	1.10809100
O	5.28251100		0.95509100	0.02596500
O	-5.03505900		3.60308300	-3.23264600
O	-5.68872000		-1.68059200	1.64161700
O	-7.96011500		0.91519100	-3.07414100
H	12.12699300		0.41286800	-3.96739600
H	12.21436200		-0.22515900	-2.33530400
H	9.93006000		1.05824400	-4.96002400
H	10.14625500		-0.50212900	-0.96574600
H	7.62336400		1.85250200	-4.51371300
H	7.86432700		0.29801800	-0.52147400
H	5.96304400		1.36249100	-1.39973100
H	12.76874000		-1.99987300	-4.00057600
H	10.18063700		-3.38962100	4.50239900
H	9.19976000		-4.37638500	3.42955700
H	7.85679300		-3.18755600	1.55810500
H	9.70292900		-1.02555200	4.77614600
H	6.49846000		-1.20755700	1.00471900
H	8.32365900		0.96467500	4.21862500
H	6.10091700		1.02789900	1.44235500
H	11.58898700		-2.65480800	2.54012000
H	7.40458900		-2.54274600	-2.23745000
H	7.71144000		-4.17743200	-2.80762700
H	5.20878100		-2.05444700	-0.99605900
H	6.45356600		-6.06118600	-1.91725800
H	3.56739700		-2.92257700	0.60578800
H	4.79554000		-6.94455600	-0.28670100
H	2.66866700		-4.81953900	1.54421400
H	5.44008700		-2.35000700	-3.79952600
H	1.47355300		2.80649600	-6.52380700
H	2.37929000		1.41009000	-5.96855400
H	1.16878100		-0.42449200	-4.66524900
H	-0.71931500		3.31403000	-5.60226300
H	-0.52749600		-0.83576200	-2.90508100
H	-2.45124200		2.87297600	-3.88475800
H	-2.76695900		1.59507900	-1.80215800
H	6.40895400		4.32936600	1.84768200
H	6.32353900		3.33667600	0.39794500
H	6.70910800		6.45600400	2.67311300
H	-8.06048200		-4.54081800	1.38352500
H	-5.61563100		-4.79595300	1.90973900
H	-6.41379800		-6.36543400	1.69421700
H	-5.39244100		-5.69724400	0.40326000
H	-6.47282700		-2.93176500	0.64339400
H	-8.38079700		-6.52549200	-0.07092900
H	-7.20458900		-0.49267400	-6.20080200
H	-7.94609600		-1.29809300	-4.83094800
H	-8.99617600		1.25937900	-6.16915400
H	-9.80169500		0.41576500	-4.83851500
H	-9.99989400		-1.78963500	-6.21063600
H	1.02258500		1.47006800	-1.41123900
H	3.44161600		1.93476600	-1.59193700
H	4.14984600		-0.47245300	1.90868200
H	1.75342800		-0.98814700	2.04346100
H	-4.51512000		3.34256300	-2.42928900
H	-4.94113900		4.56214900	-3.27885100
H	-0.86307000		0.48612000	-0.25934300
H	-0.14965100		-1.96054900	1.46139700
H	-4.81721100		-1.46499500	1.25338200
H	-6.24887900		-0.88214200	1.52892300
H	-9.26879800		-0.96866300	-7.59624100
H	-8.54646000		-2.45544400	-6.96747600
H	-8.87456900		-5.04520900	-0.91904600
H	-7.32136500		-5.81434000	-1.30489700
H	-3.06660400		-6.78774900	-4.88392700
H	-2.14528600		-5.28486000	-5.02176600
H	-9.85368100		1.79134100	1.82007900
H	-9.41933200		1.39710900	3.49450800
H	-8.05578100		4.62461600	0.36997500
H	-7.01756900		4.84255500	1.78473200
H	5.27409900		7.21229400	1.97440400
H	6.74502600		8.16375000	2.22298900
H	-4.62163500		3.56598900	5.11490300
H	-6.30951600		3.04592800	4.93664100
H	11.27780100		-2.42565500	-3.13826700
H	11.18984300		-1.78487300	-4.78120700
H	10.59483100		-3.63665400	1.46156800
H	11.59101200		-4.42264900	2.70003900
H	0.13295200		1.32610100	-8.07118900
H	1.04192800		-0.07989100	-7.50730900
H	1.78876000		-4.21605800	-5.12346400
H	2.69597900		-5.73202900	-5.23589500
H	5.74879400		-3.98900700	-4.39042500
H	6.93583000		-2.69827000	-4.67599500
C	5.95513900	-3.99184500	-1.58957400
C	5.12830300	-3.12950600	-0.85572200
C	5.82000800	-5.36866200	-1.36733800
C	4.89285200	-5.87702000	-0.45741400
C	4.07234800	-4.99767100	0.25264200
C	4.19586100	-3.61951700	0.05680400
C	1.09465600	1.00351000	-7.65769600
C	1.39654400	1.72904600	-6.33619500
C	0.35280000	1.47695100	-5.26923700
C	0.37464400	0.30110900	-4.50660800
C	-0.67601300	2.39413000	-5.02346400
C	-0.57852300	0.05620000	-3.52121600
C	-1.64569300	2.16289400	-4.04655200
C	-1.58684400	0.99438100	-3.27789700
C	2.18978600	-5.05301200	-4.54017700
C	1.07746700	-5.78398500	-3.77379600
C	0.23359100	-4.82553100	-2.90317500
C	1.64502700	-6.96314100	-2.96958200
C	0.96589000	-4.12590200	-1.75237600
C	-1.21054000	-8.26974200	0.45156400
C	-1.14202700	-7.65481000	1.85722300
C	-0.47950400	-6.26937400	1.83256600
C	-2.53486400	-7.58751700	2.49926300
C	-3.13939600	-5.69704400	-4.82036300
C	-3.65147600	-5.24801700	-3.44919700
C	-3.77631100	-3.72498400	-3.34520900
C	-4.20474600	-3.24688600	-1.95283300
C	-5.45131600	-1.08641600	-2.15280800
C	-7.01965700	4.77755300	0.69058600
C	-6.11398000	3.64745400	0.19835300
C	-4.65404800	3.84027400	0.65101400
C	-3.72512800	2.76659600	0.09348400
C	-9.76816400	0.97559200	2.54564400
C	-8.79912500	-0.09096000	2.03307900
C	-9.23579900	-0.67382900	0.69302700
C	-5.28898700	2.69913300	5.12913100
C	-4.85115000	1.68142700	4.07649500
C	-3.45238600	1.13714200	4.32984700
C	6.36896900	7.17828900	1.92495000
C	6.84546600	6.80620700	0.51594900
C	6.29686200	5.47242700	-0.02877200
C	6.70498200	5.28292500	-1.49800100
C	6.73690200	4.26226400	0.80628900
C	-8.02109700	-5.58266900	-0.49439400
C	-7.33314500	-4.73979800	0.57959700
C	-6.11704800	-5.44257500	1.18379300
C	-9.04515300	-1.52509900	-6.67876100
C	-8.16999300	-0.70861300	-5.72615300
C	-8.82736900	0.61911100	-5.29483600
C	-7.97865300	1.32428400	-4.24765900
H	1.87073200	1.20290800	-8.40498200
H	0.38735800	-6.20204100	-4.52300200
H	0.85442300	-7.49012500	-2.42267700
H	2.39183300	-6.63002100	-2.24154200
H	2.13333300	-7.68761600	-3.63157300
H	-0.20493800	-4.06268300	-3.56250200
H	-0.61154700	-5.39258900	-2.49008800
H	0.28623000	-3.45446100	-1.21696700
H	1.80913600	-3.52519600	-2.10503400
H	1.35585200	-4.84345400	-1.02461900
H	2.95175400	-4.65380100	-3.86259200
H	-0.51732500	-8.31431300	2.47809900
H	-2.48664200	-7.17537000	3.51292300
H	-3.20099600	-6.94158700	1.91445800
H	-2.99759100	-8.57966900	2.55920100
H	-0.39404400	-5.86192300	2.84649000
H	-1.06997900	-5.55499200	1.24600400
H	0.52670800	-6.31669100	1.40143800
H	-1.65708500	-9.27075400	0.47341600
H	-2.97422900	-5.61513900	-2.66748200
H	-4.62854500	-5.70897700	-3.24840300
H	-2.81687100	-3.25813200	-3.60290600
H	-4.50514800	-3.36491500	-4.08373300
H	-5.14312500	-3.71042300	-1.64348100
H	-3.46729400	-3.51427800	-1.19070300
H	-3.51673000	-1.23629300	-1.72200100
H	-7.43625400	-1.02875000	-2.38064300
H	-6.85300100	-2.46324000	-1.60318000
H	-6.19131900	0.78297300	-2.43962800
H	-4.41795600	0.62724300	-2.48927800
H	-3.80711600	-5.36035800	-5.62205200
H	-6.49074700	2.68559300	0.56710600
H	-6.15168900	3.60365000	-0.89566600
H	-4.29492500	4.82064200	0.32109100
H	-4.59242500	3.82186000	1.74205000
H	-6.69168700	5.75044200	0.30471700
H	-8.74521400	-0.90403400	2.77454700
H	-9.20503900	0.10142500	-0.08049800
H	-8.58079100	-1.49598300	0.39138300
H	-10.25897000	-1.05892000	0.75735300
H	-7.09720600	0.68833900	2.71866700
H	-10.76407600	0.55028800	2.71116000
H	-4.85663200	2.15091300	3.08542500
H	-2.72420700	1.95290800	4.31050900
H	-3.16131500	0.42955500	3.54799300
H	-3.39465400	0.63085700	5.29813900
H	-5.42627300	-0.16132100	3.64019200
H	-5.26096600	2.25236000	6.12840800
H	6.56326000	7.61123900	-0.17754400
H	7.94487000	6.76706600	0.50087900
H	5.19736300	5.52718700	0.01130400
H	6.32201500	6.09375800	-2.13008300
H	6.33789900	4.33095900	-1.89414400
H	7.79815700	5.27450700	-1.59687500
H	7.83023100	4.16585300	0.80659100
H	-1.82107600	-7.64757300	-0.21506400
H	-2.89994600	0.25578300	0.64422200
H	-0.21380200	-8.35425600	0.00519800
H	-6.52798200	2.79482200	-4.04543700
H	-7.21488900	2.61775200	-5.63572800
H	-0.61032800	-2.53810700	7.40128800
H	0.07472100	-3.21802800	5.12468600
H	-1.63551300	-3.37870700	3.30103700
H	-3.99224100	-2.85832200	3.78889200
H	-4.68402500	-2.20637200	6.07900300
H	-2.25823100	-2.02111200	8.98140900
H	-3.88277100	-2.60174300	8.67047900
H	-2.89059500	0.24351200	8.09202800
H	-3.95220400	-0.24332600	9.42403100
H	-4.52165600	-0.34128800	7.75200400
H	2.80749800	-1.63124700	5.83217400
H	2.29747400	-1.29761800	4.17518900
H	4.01307800	-1.24027300	4.59666700
H	-0.49604900	1.35477800	4.89125900
H	0.86137200	1.85171600	3.86706600
H	0.40596700	0.15085400	3.97520000
H	1.05500800	0.09784600	6.36860000
H	1.93523900	3.01164500	6.07016700
H	2.11912400	2.00017800	7.50903900
H	0.50219300	2.45880600	6.94644000
H	3.58359100	0.70703700	6.11779300
H	3.19722300	1.09311000	4.45138000
H	0.43502800	4.94453700	4.67946100
H	0.26904200	6.04394200	1.82307800
H	2.54670200	5.21188500	2.33937100
H	1.88565700	3.67005100	2.89535600
H	1.74521100	4.12885800	1.19418700
H	-0.77919900	3.38715400	2.93753700
H	-1.76990300	4.76485000	2.43172100
H	-0.81060100	3.87283000	1.24196600
H	-2.47451300	10.51004200	1.19836500
H	-1.77406200	9.81745700	-1.06511000
H	-3.38558700	9.23307400	-0.72420500
H	0.81431800	8.86488700	-0.76590900
H	2.80611100	7.48703900	-1.29065700
H	2.57735400	5.09542200	-1.87766300
H	0.34085900	4.01593900	-1.97885600
H	-2.39862400	4.56972300	-1.44636400
H	-3.82304900	6.59234900	-0.97897900
H	1.16648600	6.45301000	4.11551200
H	-0.59586600	6.28181200	4.15018900
H	-1.11359500	9.38455500	1.33434100
H	-2.75064400	8.82174700	1.66630300