303

C	-1.74567100	9.46766800	0.51215700
C	-1.93017500	9.01834600	-0.93218600
C	-1.59410100	7.57658700	-1.19610800
C	-2.48486400	6.53985800	-1.33955400
C	-0.28230100	6.99360400	-1.34376600
C	-0.46553000	5.59820200	-1.56492400
C	1.02670700	7.51045200	-1.32364200
N	-1.82248600	5.35002400	-1.56883200
C	0.61384200	4.72404300	-1.74743600
C	2.09823800	6.64624200	-1.50948000
C	1.89359100	5.26528800	-1.71537200
C	0.50641200	5.77529100	3.66766100
C	0.51286300	5.14015700	2.27634600
C	1.79367400	4.32548400	2.05454900
C	-0.74264700	4.28502600	2.05791100
N	-4.47077100	-1.76023800	-1.71202200
N	-6.75438100	-1.83611700	-2.28699300
N	-5.64165200	0.19440000	-2.01733800
N	-7.68632800	2.23013000	-4.37804600
C	1.43460200	2.28091800	6.55152800
C	1.32119800	0.98487000	5.74717000
C	2.69073800	0.57094700	5.17083100
C	0.22875900	1.08367500	4.67814600
C	2.75970900	-0.87052900	4.65397500
C	-3.88068300	0.04547800	8.42125500
C	-3.42846200	-1.41080100	8.41379000
C	-3.00186700	-1.88421500	7.03488500
C	-3.92202000	-1.92629500	5.97476100
C	-1.67816400	-2.25743900	6.77418700
C	-3.52913400	-2.31653500	4.69435600
C	-1.27878300	-2.65408500	5.49537300
C	-2.20195400	-2.67998300	4.45003400
C	11.49251500	-2.76236000	-3.54624800
C	11.73954400	-1.27712400	-3.23489000
C	10.46191000	-0.50961900	-2.97362800
C	9.89083900	0.32224800	-3.94513900
C	9.78218800	-0.63904400	-1.75431100
C	8.69524000	0.99938500	-3.71614400
C	8.58564900	0.02689200	-1.50581500
C	8.02346400	0.86232900	-2.49013900
C	-4.65796900	3.77093400	0.27631500
C	-4.01046800	2.54825600	-0.36143200
C	-9.85654900	1.52674700	2.42815600
C	-8.99029100	0.33015000	2.04234600
C	-9.43439900	-0.32622400	0.73907600
C	-5.30394700	3.12878100	4.96066300
C	-4.99205500	2.14093400	3.84012000
C	-3.54202000	1.67590400	3.84256800
C	6.62308500	6.73044100	1.64145000
C	6.92610800	6.59637100	0.14579500
C	6.81635400	5.16329700	-0.41057500
C	6.97405900	5.15865400	-1.93835600
C	7.82154900	4.19842600	0.23437700
C	-8.47542300	-5.28430500	-0.22018000
C	-7.72652300	-4.42880900	0.80313900
C	-6.69256300	-5.22811500	1.59556000
C	-9.20945100	-1.53012000	-6.63327600
C	-8.40087600	-0.68531300	-5.65268400
C	-9.22905700	0.44431800	-5.00226700
C	-8.37649100	1.15127200	-3.96388400
C	-0.70535700	0.17295300	0.85330300
C	0.19320600	0.31528900	-0.13707400
C	1.64060700	0.50523000	-0.06252900
C	2.38696400	0.59601200	-1.25521600
C	3.76248500	0.77720100	-1.25552800
C	4.49096000	0.87903600	-0.03917400
C	3.73488600	0.79846500	1.16622500
C	2.36008500	0.62050600	1.14524000
O	6.87993000	1.54575300	-2.29940200
O	7.09101600	1.18865600	2.22776600
O	2.49687100	-4.29520900	1.72294400
O	-2.59293500	0.37664300	-2.36787600
O	-4.31605600	1.40832200	0.07275800
O	-3.27686100	2.74459500	-1.39992800
O	-7.63045100	0.74823900	1.85611300
O	-5.88982200	1.00742400	3.98481200
O	-7.10540900	-3.35963100	0.07978700
O	5.79574300	1.02882800	-0.02287400
O	-5.02400800	2.69934400	-3.57985000
O	-5.78902600	-1.21757800	1.48207300
O	-8.28158900	0.69039500	-2.81189700
H	12.28027400	-0.81766900	-4.07214800
H	12.40413400	-1.20427700	-2.36336100
H	10.39565400	0.44712600	-4.90202900
H	10.20028700	-1.26798300	-0.97029400
H	8.26439300	1.64913100	-4.47212200
H	8.08700900	-0.07803100	-0.54901700
H	6.46830500	1.33862100	-1.38763300
H	12.43266400	-3.30010300	-3.72078700
H	9.81193300	-3.69490300	4.81969400
H	8.67009600	-4.57209300	3.81433200
H	7.52371500	-3.33107000	1.86718300
H	9.84077000	-1.26115100	4.83142600
H	6.51755700	-1.19793800	1.16000500
H	8.82398900	0.88706600	4.11195700
H	-8.81461500	-1.19910100	0.51024300
H	-10.47660200	-0.65442300	0.80920800
H	-7.23645300	1.02026100	2.71508300
H	-10.89765800	1.22441100	2.58566600
H	-5.20892100	2.61623400	2.87559100
H	-2.86289300	2.53035300	3.77154400
H	-3.33880600	1.03200100	2.98082500
H	-3.31537500	1.12279200	4.75963700
H	-5.48538800	0.25845200	3.51679500
H	-5.06679600	2.69128100	5.93594400
H	6.23785800	7.24501600	-0.41488700
H	7.93706200	6.97998800	-0.05949600
H	5.80632100	4.79343600	-0.17887100
H	6.23221600	5.80803300	-2.41982800
H	6.85855300	4.14605100	-2.33600100
H	7.96924100	5.52258800	-2.22737400
H	8.85172300	4.54151200	0.06750900
H	7.66895100	4.09137800	1.31204100
H	7.72239200	3.20163700	-0.20012000
H	7.33989100	6.17385700	2.25291300
H	-8.46044300	-4.00346400	1.50615100
H	-6.15223900	-4.58088500	2.29376600
H	-7.17232500	-6.02375600	2.17559200
H	-5.96252300	-5.68645400	0.91976200
H	-6.63683200	-2.73649800	0.68116200
H	-9.01150200	-6.09901200	0.27592500
H	-7.53718700	-0.24486900	-6.16637200
H	-7.99291500	-1.32367300	-4.86127300
H	-9.58650200	1.14176400	-5.76950800
H	-10.10136700	0.02523400	-4.49223600
H	-10.05564000	-2.01666300	-6.13532400
H	1.86393000	0.51633500	-2.20661600
H	4.31168800	0.84924300	-2.18998800
H	4.26812500	0.89736700	2.10776800
H	1.82156600	0.58416300	2.08790800
H	-4.80109900	1.75647600	-3.59755400
H	-4.44359300	3.02429400	-2.86228200
H	-0.19125900	0.29073500	-1.15393400
H	-0.43518500	0.19024800	1.90479700
H	-5.06802200	-0.79654300	0.98824300
H	-6.48689800	-0.51780500	1.50460100
H	-9.61256100	-0.92102200	-7.45044600
H	-8.58974700	-2.31457400	-7.07868900
H	-9.20060600	-4.67810100	-0.77110900
H	-7.77288300	-5.72179300	-0.93794400
H	-3.49171300	-7.01823700	-4.41912300
H	-2.62201900	-5.54120800	-4.85386300
H	-9.82855900	2.28250700	1.63676300
H	-9.49571500	1.98692800	3.35415400
H	-7.94075900	5.01928300	0.14679700
H	-6.78871900	5.19262400	1.47749200
H	5.62404000	6.34435800	1.87503400
H	6.65782700	7.77813600	1.96223800
H	-4.71209100	4.03996400	4.83343200
H	-6.36386800	3.40262400	4.95553000
C	10.56914600	-4.19903800	2.85777700
C	9.42430900	-3.77400900	3.79576500
C	8.77332200	-2.46514200	3.39880600
C	9.11422600	-1.25563500	4.02003600
C	7.82692900	-2.41228100	2.36612700
C	8.54976600	-0.04454000	3.62598600
C	7.25103700	-1.21206300	1.95794400
C	7.61192500	-0.00096400	2.57972600
C	5.91480500	-3.84000800	-3.65179500
C	6.56220900	-3.97677700	-2.26240200
C	5.53361700	-4.05517500	-1.15521100
C	4.92636400	-2.89006500	-0.66607200
C	5.11116300	-5.28225500	-0.62738500
C	4.10945500	-5.35497800	0.34161400
C	3.50600800	-4.18002800	0.79683100
C	3.92315200	-2.94236200	0.29935000
C	1.06953900	0.34179300	-7.63901500
C	1.60900800	0.52318100	-6.21292600
C	0.50417300	0.49909400	-5.18221400
C	0.03124500	-0.71210100	-4.66083900
C	-0.11628800	1.67909500	-4.75496200
C	-1.00735600	-0.74727800	-3.73478000
C	-1.16229400	1.66333100	-3.83419900
C	-1.60450600	0.44329300	-3.30751900
C	1.78084800	-5.58200200	-4.17476100
C	0.63347200	-5.89265300	-3.20216900
C	-0.02320400	-4.61038800	-2.64069700
C	1.09709600	-6.84818100	-2.09224000
C	0.84983400	-3.74228300	-1.72723500
C	-1.84318000	-8.30729100	0.95118000
C	-1.76830800	-7.53801500	2.27814200
C	-1.22061000	-6.11829600	2.07356200
C	-3.13666100	-7.50786900	2.97381300
C	-3.57496900	-5.92839700	-4.47817200
C	-3.91474900	-5.32333600	-3.11202100
C	-4.06802900	-3.79602900	-3.14440600
C	-4.25541000	-3.20920300	-1.73700000
C	-5.62477500	-1.14425600	-1.98809800
C	-6.87387200	5.05042000	0.39375600
C	-6.16372100	3.77533400	-0.05732300
H	6.55665300	1.11999900	1.36851800
H	11.36116300	-3.44276600	2.84308900
H	7.22510200	-3.12013800	-2.09317500
H	7.19532100	-4.87274000	-2.24333700
H	5.23608000	-1.91804300	-1.04015000
H	5.57313000	-6.20219000	-0.97978100
H	3.47294800	-2.01923400	0.65681000
H	3.78788800	-6.30762000	0.75121300
H	2.18195500	-3.40564900	1.93420800
H	5.29749400	-2.93779200	-3.70440900
H	2.15527000	1.47103200	-6.14698800
H	2.33647800	-0.26799100	-5.99592700
H	0.49966500	-1.64491900	-4.96661000
H	0.23145700	2.63527700	-5.13850500
H	-1.33396100	-1.68878500	-3.30470500
H	-1.62625600	2.58966000	-3.51310800
H	-2.76801700	1.27927800	-1.95836200
H	1.87890100	0.35771600	-8.37779500
H	-0.14846100	-6.41220500	-3.77762200
H	0.28273800	-7.06994400	-1.39259500
H	1.92561900	-6.42209000	-1.51768300
H	1.44255100	-7.79882700	-2.51464900
H	-0.37021200	-4.00654800	-3.49195500
H	-0.92708300	-4.90415900	-2.08805500
H	0.32162300	-2.82877500	-1.43568500
H	1.77824800	-3.43159800	-2.21433600
H	1.12217100	-4.26779400	-0.80825500
H	2.61653200	-5.09060100	-3.66584900
H	-1.07015400	-8.07448500	2.93727400
H	-3.08335400	-6.98920700	3.93707400
H	-3.87615600	-6.98202200	2.35648000
H	-3.51665500	-8.51967000	3.15613700
H	-1.18229900	-5.57010500	3.02114500
H	-1.86296000	-5.54919900	1.38914900
H	-0.20937100	-6.12418800	1.65395000
H	-2.20366300	-9.33143000	1.10162000
H	-3.12959700	-5.59473100	-2.39470600
H	-4.84298000	-5.77125000	-2.73071500
H	-3.18304300	-3.34222600	-3.60704200
H	-4.92578400	-3.52054200	-3.77028600
H	-5.08578800	-3.69370100	-1.21500000
H	-3.36171500	-3.39623800	-1.13420900
H	-3.65241700	-1.14413600	-1.74524500
H	-7.58157100	-1.24517000	-2.32873000
H	-6.89457800	-2.69440700	-1.75500000
H	-6.56660600	0.62180800	-2.09078100
H	-4.97562200	0.65851100	-1.37815500
H	-4.34556000	-5.69187200	-5.22106300
H	-6.63031800	2.89633500	0.40103700
H	-6.28328200	3.66124800	-1.14295500
H	-4.17925400	4.68251200	-0.08785200
H	-4.51620400	3.73691900	1.36057300
H	-6.44743200	5.93831400	-0.08703000
H	-9.03248100	-0.41625900	2.85212300
H	-9.34660300	0.38018300	-0.09293600
H	10.97179100	-3.25230200	-2.71715700
H	10.86585500	-2.87345200	-4.43767300
H	10.20799500	-4.31526500	1.83078300
H	11.01196900	-5.15207600	3.17209700
H	0.36262300	1.13881400	-7.89328600
H	0.53967500	-0.61172700	-7.73850500
H	1.44928400	-4.92355400	-4.98604800
H	2.16843100	-6.50120400	-4.62875400
H	5.27094300	-4.69913100	-3.87153600
H	6.67543400	-3.77279800	-4.43763400
H	-2.53045000	-7.81321600	0.25253700
H	-1.76188600	0.07753600	0.62354100
H	-0.86276100	-8.36412600	0.46660600
H	-6.86680100	2.56601200	-3.85602900
H	-7.73572300	2.50233300	-5.34791900
H	-0.94853900	-2.23155700	7.58009700
H	-0.24436300	-2.93249400	5.31610300
H	-1.88991800	-2.97237500	3.45197800
H	-4.25285900	-2.32497700	3.88278100
H	-4.95603700	-1.63821600	6.14939300
H	-2.59708800	-1.54520400	9.11505600
H	-4.24685200	-2.04491100	8.78178600
H	-3.07137500	0.70862300	8.09854200
H	-4.19320700	0.35883900	9.42373400
H	-4.72592700	0.20542900	7.74426700
H	2.52625800	-1.58506400	5.45314700
H	2.05508800	-1.04334500	3.83402800
H	3.76007500	-1.10417200	4.27743800
H	-0.72804400	1.37629300	5.12391600
H	0.48543700	1.82891300	3.91763600
H	0.06993600	0.12726900	4.17201700
H	1.01611900	0.19301600	6.45106200
H	1.76009000	3.11365900	5.91581700
H	2.16351800	2.18355400	7.36396600
H	0.47242400	2.56245700	6.99513500
H	3.45191300	0.69562500	5.95247200
H	2.96985200	1.26572600	4.36726000
H	0.51506600	5.00509300	4.44987400
H	0.49843900	5.94694100	1.53118900
H	2.68453800	4.95662900	2.14990900
H	1.88271500	3.51828900	2.79180900
H	1.81306400	3.86891900	1.06224800
H	-0.79160000	3.46989000	2.79028200
H	-1.65390900	4.88699400	2.16224500
H	-0.74868300	3.83090100	1.06326500
H	-1.98776100	10.53035700	0.63222900
H	-1.31847700	9.65796600	-1.58430600
H	-2.97044800	9.20076400	-1.23308700
H	1.19789300	8.57215500	-1.16305300
H	3.11301300	7.03352200	-1.49117500
H	2.74912500	4.60908800	-1.84309700
H	0.46124600	3.66014500	-1.90096900
H	-2.26345200	4.42998700	-1.56683700
H	-3.56600800	6.56641500	-1.31207000
H	1.38620200	6.41051600	3.82224400
H	-0.38453800	6.39552800	3.82577900
H	-0.71384200	9.31793000	0.84621500
H	-2.39052300	8.89425200	1.18661600