306

C	-1.74773900	9.54888200	0.25501000
C	-1.91706900	9.06006700	-1.17851400
C	-1.50724100	7.63604700	-1.42682200
C	-2.34834700	6.55878100	-1.56999000
C	-0.17032500	7.11460800	-1.57287700
C	-0.29048300	5.71111800	-1.79353100
C	1.11358000	7.69020300	-1.55628600
N	-1.63280600	5.40155900	-1.79865200
C	0.82731800	4.88887100	-1.98162600
C	2.22345200	6.87626700	-1.74544700
C	2.08142800	5.48791900	-1.95317100
C	0.60802100	5.99888300	3.49747200
C	0.63428500	5.33168700	2.12143100
C	1.94086800	4.55290100	1.91460100
C	-0.59061900	4.44054200	1.91263900
N	-4.89250700	-2.27367100	-1.48371600
N	-7.12937700	-1.90213900	-2.07935100
N	-5.69750200	-0.11987900	-1.61016800
N	-7.09927100	1.95483100	-4.54898700
C	1.63449700	2.60199000	6.46339500
C	1.55947700	1.28480000	5.68939000
C	2.94384800	0.89424100	5.13393200
C	0.46857300	1.33128400	4.61566200
C	3.06052200	-0.56193700	4.67015800
C	-3.61510100	0.25811500	8.38436800
C	-3.12090200	-1.18496000	8.40959500
C	-2.82442300	-1.70990500	7.01771800
C	-3.86895000	-1.94961000	6.11151800
C	-1.50992500	-1.89759600	6.57600500
C	-3.60860400	-2.32541300	4.79477100
C	-1.24290300	-2.28653500	5.26018000
C	-2.28957900	-2.48642700	4.36030200
C	11.84457100	-2.38344100	-3.50968700
C	11.76210700	-0.89208900	-3.13928100
C	10.34584400	-0.40002000	-2.92395000
C	9.56577300	0.06297700	-3.99366600
C	9.75388600	-0.41602100	-1.65489200
C	8.25510200	0.49309700	-3.80996000
C	8.44236100	0.01213200	-1.44874900
C	7.67647900	0.47461900	-2.53105000
C	10.95708200	-3.69487200	2.92624900
C	9.66662600	-3.61838600	3.76250300
C	8.79384600	-2.43061800	3.41342700
C	8.87387500	-1.22681000	4.12791900
C	7.89700500	-2.48335400	2.33852600
C	8.10450500	-0.11786900	3.78390000
C	7.11795300	-1.38517800	1.97976200
C	7.21912800	-0.18240700	2.69734100
C	6.30029000	-3.62521400	-3.59103900
C	6.86351200	-3.81012000	-2.17176100
C	5.78145600	-4.04625400	-1.14011200
C	4.98218100	-2.98664900	-0.68730900
C	5.51351600	-5.32523700	-0.63469100
C	4.48520300	-5.55147100	0.28010400
C	3.69652400	-4.48145600	0.70828100
C	3.95107100	-3.19352600	0.22762000
C	1.33951700	0.31893400	-7.67714800
C	1.62910900	1.02943400	-6.34896800
C	0.44392800	0.89713000	-5.42672000
C	0.28952100	-0.23931300	-4.62450400
C	-0.59126700	1.84049500	-5.44670000
C	-0.86241100	-0.43603700	-3.86636000
C	-1.74693400	1.66408600	-4.69260800
C	-1.88403500	0.51990100	-3.89980000
C	2.21917600	-5.49861400	-4.07391600
C	0.98568200	-5.94977200	-3.27712600
C	0.17497700	-4.75898600	-2.71611800
C	1.37240200	-6.96328800	-2.18948500
C	0.87611200	-3.88733500	-1.66804000
C	-1.32808900	-8.20550200	1.11360700
C	-1.42239900	-7.34784500	2.38419200
C	-0.85436700	-5.94031100	2.15088300
C	-2.86720700	-7.28165200	2.89850100
C	-3.12316000	-6.00738800	-4.37054800
C	-3.93936200	-5.60011300	-3.14192700
C	-4.00058600	-4.08222000	-2.93334200
C	-4.88736800	-3.70504500	-1.74085700
C	-5.89356700	-1.43692200	-1.72007000
C	-6.74473800	4.98244000	0.23945800
C	-5.79367000	3.80541200	0.02583800
C	-4.37382000	4.12635900	0.52116400
H	6.41948900	-1.45667200	1.15336300
H	8.17530200	0.81086300	4.34155200
H	6.02383600	0.81368200	1.52473900
H	11.56917000	-2.79846200	3.07142000
H	7.44524900	-2.92023800	-1.90380300
H	7.56354700	-4.65456500	-2.16495300
H	5.16906800	-1.97848400	-1.04812600
H	6.12155800	-6.16520300	-0.96305100
H	3.34949700	-2.35268100	0.56576500
H	4.28508100	-6.54407100	0.67081400
H	2.22411700	-3.92650200	1.80263300
H	5.62415000	-2.76565600	-3.63247400
H	1.85018900	2.08707900	-6.53479500
H	2.52435700	0.59700800	-5.88676200
H	1.07939400	-0.98666800	-4.59770000
H	-0.48593100	2.73329700	-6.05901300
H	-0.97937400	-1.31901600	-3.24530200
H	-2.54058100	2.40397800	-4.68362600
H	-2.81168100	-0.03437100	-2.27587600
H	2.18324000	0.39932800	-8.37289200
H	0.31675300	-6.46758000	-3.98139900
H	0.49587400	-7.28859900	-1.61736900
H	2.09522300	-6.54016600	-1.48436100
H	1.83104500	-7.85456500	-2.63300200
H	-0.13087800	-4.12466900	-3.56031200
H	-0.75354400	-5.15230300	-2.28017500
H	0.22823600	-3.05679700	-1.36687600
H	1.80664000	-3.45388600	-2.04566000
H	1.12113100	-4.45442200	-0.76527900
H	2.95899800	-5.01191000	-3.42970500
H	-0.81178500	-7.83185300	3.16078300
H	-2.93453200	-6.69876000	3.82320900
H	-3.52131000	-6.80214300	2.15961800
H	-3.26889000	-8.28171600	3.09870800
H	-0.93323900	-5.32827800	3.05635900
H	-1.40988200	-5.42439500	1.35754800
H	0.19967600	-5.97210400	1.85537200
H	-1.70162400	-9.22129400	1.28686800
H	-3.51309200	-6.07171900	-2.24587900
H	-4.96050900	-5.99626400	-3.23557100
H	-2.98900900	-3.68720200	-2.77778600
H	-4.39073500	-3.59266100	-3.83492100
H	-5.90573900	-4.04936900	-1.91551000
H	-4.53632300	-4.21015000	-0.83400300
H	-4.00893600	-1.82094000	-1.15616400
H	-7.80457500	-1.15569900	-2.23118600
H	-7.44066900	-2.62814900	-1.43383800
H	-6.45757400	0.51403300	-1.84256500
H	-4.76829600	0.23735800	-1.43643800
H	-3.55916300	-5.59448100	-5.28751200
H	-6.17863700	2.91764400	0.54361200
H	-5.75948200	3.55009900	-1.03850500
H	-4.04318300	5.07501600	0.08327000
H	-4.36956000	4.24976900	1.60753300
H	-6.40909200	5.86949800	-0.31078200
H	-4.41389600	4.03767600	4.71883800	
H	-6.12962700	3.59033200	4.63295100	
H	11.40698500	-3.00492200	-2.72154600	
H	11.29252300	-2.58764000	-4.43328200	
H	10.72509600	-3.76465000	1.85851200	
H	11.56020100	-4.56823200	3.20117900	
H	0.45746400	0.74932100	-8.16275700	
H	1.13801700	-0.74463800	-7.51279500	
H	1.94623400	-4.79114200	-4.86525900	
H	2.71209100	-6.35524800	-4.54764200	
H	5.73808700	-4.50951200	-3.91080400	
H	7.10573400	-3.44930300	-4.31204700	
H	-1.92462700	-7.76647600	0.30360500	
H	-1.97017400	1.40810300	0.75785000	
H	-0.29444000	-8.28206400	0.75960400	
H	-6.35239600	2.30901300	-3.93075400	
H	-6.98794600	2.11398300	-5.53825800	
H	-0.68563900	-1.72378700	7.26427100	
H	-0.21303400	-2.41462700	4.93766100	
H	-2.09373400	-2.72699100	3.32096500	
H	-4.42742500	-2.45873700	4.09386200	
H	-4.89861200	-1.81451700	6.43603900	
H	-2.21871500	-1.25795800	9.02822600	
H	-3.87855400	-1.81808800	8.89114100	
H	-2.86240400	0.92185200	7.94644500	
H	-3.83865100	0.62182100	9.39403300	
H	-4.52531000	0.35364600	7.78403600	
H	2.84355800	-1.25267500	5.49400000	
H	2.36608000	-0.79208500	3.85542100	
H	4.07111800	-0.77988400	4.31091200	
C	-3.35275400	3.06208700	0.12417400
C	-9.62574100	1.42256500	2.35563300
C	-8.71984900	0.24718000	1.99624400
C	-9.16258200	-0.43870500	0.70896500
C	-5.12404300	3.21584600	4.85113900
C	-4.76090800	2.05593700	3.92558800
C	-3.38640600	1.47120000	4.21654700
C	6.69625500	7.08329700	1.45089100
C	6.93255900	6.50646200	0.05033600
C	6.52140400	5.03164700	-0.12811500
C	6.63792200	4.61684200	-1.60248700
C	7.33128600	4.08091700	0.76432600
C	-8.04457600	-5.40578500	-0.13046200
C	-7.59296500	-4.50955000	1.01932000
C	-6.52700300	-5.17035500	1.89417800
C	-8.88134300	-1.82707600	-6.63061300
C	-8.06485600	-1.00197400	-5.63194600
C	-8.77809500	0.29487400	-5.18853700
C	-7.96598700	1.01993600	-4.12244500
C	-2.46210200	-0.58735100	0.38690400
C	-1.27695600	0.30589400	0.69122900
C	-0.28009100	0.46384100	-0.30859600
C	1.10338400	0.64422400	-0.18043600
C	1.90122100	0.78931600	-1.36331300
C	3.26785100	0.85843600	-1.31877900
C	3.96963000	0.78506100	-0.06376500
C	3.16640800	0.68683900	1.13175800
C	1.80154200	0.61453000	1.06997700
O	6.40431100	0.91586400	-2.40295700
O	6.48847700	0.91759800	2.39681300
O	2.68097100	-4.75151700	1.59173800
O	-3.02742300	0.34977200	-3.17472800
O	-2.86498700	2.37338300	1.08433400
O	-3.05631600	2.91981300	-1.09065200
O	-7.36790500	0.68909400	1.80453500
O	-5.79284200	1.04122000	4.07141700
O	-7.11186400	-3.31232100	0.42371400
O	-2.79570500	-0.75314000	-0.84855200
O	-3.07253800	-1.08599400	1.35499400
O	5.25107300	0.78389600	-0.00161200
O	-4.69838900	2.57996700	-3.26119700
O	-5.70197000	-1.56919900	1.96759000
O	-8.08240900	0.71342300	-2.92214100
H	12.23961900	-0.30170500	-3.93207700
H	12.35129700	-0.71771800	-2.23032100
H	9.99714200	0.09525500	-4.99270400
H	10.32943200	-0.76231400	-0.79892100
H	7.66128700	0.85933300	-4.64169100
H	8.01674000	0.00206500	-0.45026100
H	6.07563700	0.86125800	-1.46358100
H	12.88338900	-2.70151200	-3.65699500
H	9.93154400	-3.57901200	4.82673100
H	9.09774000	-4.54640000	3.62185400
H	7.79189700	-3.40444400	1.76877900
H	9.55455000	-1.15467400	4.97445300
H	-8.74679200	-0.48630200	2.81836900
H	-9.06499400	0.25018000	-0.13710200
H	-8.55776800	-1.32756800	0.51428500
H	-10.21108100	-0.74712100	0.78402000
H	-7.00074600	0.99803300	2.66310400
H	-10.65618000	1.08776500	2.51848900
H	-4.76354200	2.40420100	2.88641600
H	-2.62020100	2.23594400	4.06452200
H	-3.16383100	0.64913800	3.52921300
H	-3.32694600	1.10029300	5.24488000
H	-5.41629200	0.19882100	3.76684900
H	-5.09745500	2.89507200	5.89802100
H	6.37846500	7.11347900	-0.67915500
H	7.99523900	6.61213600	-0.21477800
H	5.46326600	4.94645100	0.16306600
H	6.01042200	5.24621900	-2.24503500
H	6.34246100	3.57438400	-1.75501500
H	7.67342100	4.71654700	-1.95285300
H	8.39748000	4.11746600	0.50479100
H	7.23600000	4.32709300	1.82619500
H	6.99258900	3.04843600	0.64598200
H	7.30163800	6.57732800	2.20936300
H	-8.46905800	-4.28314000	1.65196800
H	-6.19417300	-4.48612400	2.68039800
H	-6.91740200	-6.07575700	2.37167000
H	-5.65378600	-5.44661600	1.29318400
H	-6.58414600	-2.76152500	1.06051200
H	-8.51723200	-6.32028400	0.24379800
H	-7.09451600	-0.74231400	-6.07349300
H	-7.84491400	-1.60534900	-4.74451000
H	-8.95194700	0.94291200	-6.05671700
H	-9.75168800	0.05392600	-4.75084700
H	-9.84042700	-2.13561700	-6.19947800
H	1.39245300	0.82398800	-2.32293600
H	3.85640800	0.94972000	-2.22593900
H	3.68964700	0.66039800	2.08173000
H	1.23090000	0.52782600	1.98785900
H	-4.22569600	1.72502800	-3.31368200
H	-4.24038800	2.98950900	-2.49680600
H	-0.65044300	0.44810600	-1.33057500
H	-0.93700100	0.17267900	1.71818400
H	-4.78015300	-1.44378000	1.63062200
H	-6.19511900	-0.75208900	1.73905200
H	-9.09619600	-1.25770000	-7.54240700
H	-8.34079100	-2.73269300	-6.92321600
H	-8.77146700	-4.88325200	-0.76082800
H	-7.18960000	-5.69262400	-0.75077800
H	-3.08481400	-7.09621900	-4.48167400
H	-2.09442400	-5.64186200	-4.30185200
H	-9.62298200	2.16134500	1.54740100
H	-9.28323600	1.91717400	3.27120900
H	-7.75846600	4.74426500	-0.10064500
H	-6.80704100	5.25770500	1.29887000
H	5.64532500	6.98257400	1.74599900
H	6.94902000	8.14904500	1.48652600
H	-0.49792400	1.60048700	5.05221300
H	0.70542600	2.07359400	3.84560200
H	0.33507000	0.36095600	4.12775000
H	1.27155300	0.50283600	6.41113600
H	1.94146600	3.42797800	5.80969000
H	2.36078000	2.54259000	7.28182700
H	0.66273200	2.86820200	6.89439200
H	3.69633900	1.06902300	5.91426400
H	3.20730300	1.57160700	4.31000000
H	0.63586300	5.24859700	4.29838700
H	0.60255400	6.12408500	1.36077800
H	2.81426600	5.20541900	2.02937900
H	2.03889100	3.74018700	2.64507500
H	1.98466900	4.11072800	0.91541700
H	-0.63435500	3.63582700	2.65532500
H	-1.52013000	5.01390100	1.99798800
H	-0.57719700	3.97456000	0.92466400
H	-2.05180600	10.59755300	0.35454200
H	-1.34843600	9.72254900	-1.84714400
H	-2.96815900	9.17988100	-1.47263700
H	1.23655000	8.75882300	-1.39775000
H	3.21909600	7.31097300	-1.73168800
H	2.96695900	4.87482200	-2.09274100
H	0.71730600	3.82126600	-2.14581000
H	-2.03504400	4.46540500	-1.75394800
H	-3.42918300	6.53437400	-1.54871500
H	1.46775800	6.66428700	3.63877900
H	-0.30184400	6.59465200	3.63783900
H	-0.70621800	9.46833200	0.58334200
H	-2.35219300	8.95293700	0.94695800