279			
			
C	2.292965	0.157200	-6.280367
C	1.336119	-1.035565	-6.225714
O	1.084485	-1.712163	-7.222853
N	0.791791	-1.298707	-4.995896
C	-0.218704	-2.334562	-4.813374
C	-1.618458	-1.687077	-4.734009
O	-1.812118	-0.692878	-4.023336
C	0.067964	-3.171836	-3.538754
C	-0.854385	-4.361943	-3.386092
C	-0.628448	-5.540780	-4.112438
C	-1.960587	-4.309559	-2.527285
C	-1.493868	-6.630872	-4.002137
C	-2.830661	-5.395261	-2.418861
C	-2.604705	-6.557321	-3.159282
N	-2.638937	-2.232880	-5.442250
C	-2.618248	-3.421125	-6.310978
C	-4.104960	-3.768006	-6.463222
C	-4.791698	-2.394064	-6.419234
C	-3.977253	-1.622365	-5.371013
C	3.545123	2.782587	-2.727440
C	4.687960	1.767723	-2.871951
O	5.855635	2.158418	-2.817078
C	2.068311	2.320882	-2.545972
C	1.802024	1.023713	-1.797736
O	1.870209	1.101592	-0.463476
O	1.565277	-0.029715	-2.386124
N	4.377503	0.455990	-3.047726
C	5.419784	-0.556215	-3.149982
C	4.849866	-1.968848	-3.420648
C	4.744871	-2.853928	-2.211804
C	3.611775	-3.212562	-1.516062
C	5.842901	-3.522804	-1.559124
C	5.291450	-4.267648	-0.474865
C	7.229752	-3.584711	-1.784934
N	3.935741	-4.058719	-0.480303
C	6.083787	-5.053637	0.369316
C	8.019905	-4.365797	-0.947410
C	7.451038	-5.091431	0.121008
C	9.785395	1.204354	-1.562455
C	9.552712	0.171268	-0.453716
C	10.824153	-0.506314	0.093270
C	11.785004	0.492351	0.755450
C	10.456565	-1.633652	1.069230
C	2.852392	7.820332	-0.368879
C	4.260340	7.351952	-0.044243
O	5.257385	7.940048	-0.460293
N	4.341406	6.217091	0.716878
C	5.623913	5.654207	1.116428
C	6.077170	4.425396	0.307817
C	7.561739	4.142653	0.575696
C	5.227095	3.189657	0.615234
C	-3.380137	-4.802941	4.962132
C	-2.830507	-4.776516	3.675190
C	-3.203537	-3.689510	5.791334
C	-2.123319	-3.667185	3.211690
C	-2.501467	-2.572958	5.344350
C	-1.953035	-2.546777	4.047581
O	-1.293930	-1.437676	3.668872
C	-0.186731	-7.545611	6.254109
C	0.804426	-6.568062	6.902424
C	0.890050	-5.266033	6.081616
C	2.173731	-7.239360	7.090136
C	1.752747	-4.162708	6.703198
C	-9.331549	-0.893952	-2.394241
C	-8.356865	-2.079743	-2.339276
C	-8.979058	-3.251792	-1.553845
C	-7.003726	-1.639506	-1.761115
C	-8.169003	-4.552272	-1.587317
C	-6.920251	-3.158588	4.744604
C	-7.724486	-2.285818	3.810828
C	-9.015289	-2.646875	3.405952
C	-7.189028	-1.084432	3.321020
C	-9.754721	-1.835864	2.541375
C	-7.922255	-0.270294	2.458988
C	-9.211160	-0.642318	2.065803
C	2.143894	-6.954499	1.392910
C	2.188152	-5.748574	2.102248
C	1.392546	-6.992301	0.210285
C	1.514061	-4.609967	1.650391
C	0.713165	-5.872764	-0.254626
C	0.742717	-4.627192	0.445820
O	0.112461	-3.579228	-0.013647
C	-3.372231	8.151202	2.981627
C	-2.065808	8.346944	2.209132
C	-1.222413	7.065175	2.016194
O	-1.854723	5.951332	2.175091
O	-0.026668	7.193538	1.704007
C	-3.360336	5.195086	5.416259
C	-1.875714	5.018445	5.792450
O	-1.547201	4.792248	6.961835
C	-4.162955	3.930631	5.770653
C	-3.781126	2.671739	4.966259
C	-4.485290	1.432148	5.537228
C	-4.073727	2.817753	3.465229
N	-0.992220	5.097859	4.766356
C	0.451163	4.946361	4.950509
C	1.155337	4.488892	3.665397
C	2.672019	4.454175	3.900607
C	0.641010	3.125602	3.189171
C	-3.798499	5.719414	-0.676592
C	-2.668994	4.792234	-0.985631
C	-2.362350	4.078646	-2.119656
N	-1.673441	4.488294	-0.082740
C	-0.827500	3.624899	-0.694868
N	-1.208333	3.346826	-1.935791
C	-5.028190	6.312414	-5.596810
C	-4.911442	4.843320	-5.241222
C	-3.787203	4.101793	-5.634262
C	-5.881181	4.207460	-4.455778
C	-3.607780	2.782224	-5.219058
C	-5.720238	2.879393	-4.052461
C	-4.575992	2.170415	-4.417534
O	-0.511762	1.861537	-4.388293
O	0.024418	-1.525860	1.389354
H	3.093776	0.072669	-5.540328
H	1.734360	1.074587	-6.063059
H	1.105777	-3.513878	-3.611470
H	-0.002154	-2.533324	-2.654218
H	0.241704	-5.606649	-4.762137
H	-2.111036	-3.427446	-1.914508
H	-1.295660	-7.538312	-4.567006
H	-3.675451	-5.339390	-1.737896
H	-3.276775	-7.406199	-3.064858
H	-0.145000	-2.968970	-5.698145
H	-4.307830	-4.329659	-7.379925
H	-4.424178	-4.379697	-5.612159
H	-4.709841	-1.902107	-7.395554
H	-5.853074	-2.447466	-6.161097
H	-3.916310	-0.550792	-5.574349
H	-4.386423	-1.742351	-4.360140
H	-2.052347	-4.234596	-5.857004
H	1.573381	2.185180	-3.509114
H	1.531856	3.126501	-2.039465
H	3.848349	3.407589	-1.884552
H	5.505394	-2.454394	-4.154975
H	3.872739	-1.885782	-3.911883
H	2.579048	-2.938017	-1.679675
H	7.680182	-3.034779	-2.607816
H	9.091267	-4.425598	-1.121333
H	5.635566	-5.618236	1.181359
H	8.093010	-5.693734	0.758440
H	6.021642	-0.560486	-2.233722
H	2.869508	8.907163	-0.469805
H	5.966267	4.671831	-0.756020
H	7.903812	3.285654	-0.012743
H	8.187025	5.003852	0.313647
H	7.735238	3.911935	1.635160
H	5.516572	2.354325	-0.027539
H	4.158843	3.371630	0.456424
H	5.353423	2.869881	1.656655
H	5.579614	5.395682	2.183163
H	-2.944871	-5.635091	3.018301
H	-3.615869	-3.690121	6.798023
H	-1.698118	-3.660783	2.211691
H	-2.355532	-1.705051	5.980010
H	-0.867215	-1.539640	2.769991
H	0.418751	-6.307877	7.901346
H	2.616642	-7.491194	6.118419
H	2.880506	-6.592664	7.619650
H	2.082502	-8.169624	7.663837
H	1.264580	-5.503395	5.076787
H	-0.124543	-4.876676	5.935874
H	1.407011	-3.909236	7.713295
H	2.807207	-4.450860	6.776099
H	1.704158	-3.251138	6.099982
H	0.159134	-7.843085	5.256934
H	-8.189740	-2.424573	-3.372275
H	-6.262989	-2.444152	-1.786002
H	-6.589549	-0.797618	-2.326550
H	-7.110125	-1.318836	-0.718158
H	-9.126412	-2.939505	-0.510704
H	-9.981899	-3.448248	-1.959250
H	-7.991800	-4.882995	-2.617942
H	-7.194293	-4.438238	-1.103966
H	-8.697940	-5.358081	-1.066924
H	-9.531469	-0.510682	-1.386198
H	-6.005668	-3.527379	4.268497
H	-7.499591	-4.024873	5.078609
H	-9.446624	-3.575522	3.773039
H	-6.187640	-0.785483	3.619344
H	-10.756181	-2.136188	2.243443
H	-7.486465	0.656288	2.096327
H	-9.785579	-0.004495	1.399606
H	1.340421	-7.916462	-0.363953
H	2.766166	-5.684068	3.023186
H	0.137687	-5.921630	-1.173028
H	1.561384	-3.681944	2.213737
H	0.082649	-2.392633	0.779973
H	-2.279155	8.735371	1.202513
H	-1.426129	9.098385	2.685760
H	-3.976933	7.369541	2.516954
H	-4.007071	3.731316	6.837570
H	-5.236082	4.131552	5.633984
H	-2.699994	2.517735	5.084568
H	-4.158484	0.521561	5.022605
H	-4.269329	1.307525	6.604593
H	-5.575246	1.510113	5.425443
H	-3.796319	1.905803	2.925449
H	-3.522002	3.646847	3.013013
H	-5.144880	2.993802	3.294023
H	-3.739258	6.036366	6.009023
H	0.939936	5.234880	2.887786
H	3.201901	4.130968	2.997768
H	2.934533	3.744460	4.695532
H	3.058333	5.439095	4.188572
H	1.165242	2.805878	2.282271
H	0.805397	2.354699	3.951621
H	-0.429667	3.159449	2.971273
H	0.609410	4.227873	5.763439
H	-4.540258	5.676397	-1.479548
H	-4.292612	5.452750	0.263751
H	-2.907523	4.045247	-3.049150
H	0.037774	3.209066	-0.198296
H	-4.936893	6.439262	-6.684654
H	-6.027244	6.675625	-5.326946
H	-6.760940	4.764719	-4.140339
H	-3.016562	4.577238	-6.236895
H	-6.474501	2.412119	-3.424494
H	-2.676812	2.267273	-5.438196
H	-4.406424	1.164200	-4.047528
H	10.348136	0.766157	-2.396369
H	10.345556	2.074603	-1.204866
H	8.882529	-0.610890	-0.832670
H	9.016756	0.646347	0.380585
H	11.349654	-0.960605	-0.761978
H	12.677939	-0.014654	1.139951
H	12.118671	1.266647	0.057611
H	11.299667	0.994738	1.601672
H	11.349222	-2.161136	1.426185
H	9.793139	-2.367440	0.599669
H	9.935420	-1.233567	1.947838
H	-0.705368	2.369225	-3.567586
H	6.351391	6.461159	0.993570
H	2.555012	7.403511	-1.338122
H	2.094790	7.534027	0.368020
H	-3.959681	9.078239	3.014678
H	-10.291714	-1.182535	-2.838140
H	2.719484	0.208523	-7.281928
H	6.100472	-0.256806	-3.956345
H	3.586903	3.432397	-3.608038
H	2.674390	-7.832884	1.749378
H	-0.303404	-8.456774	6.853883
H	-6.602759	-2.601687	5.632919
H	0.889609	5.899839	5.283558
H	-3.924405	-5.675049	5.313551
H	-1.585673	4.930870	0.861855
H	-0.877081	0.980221	-4.195360
H	-1.173415	-7.086186	6.133225
H	-1.326328	5.350639	3.828664
H	0.937854	-0.648496	-4.227119
H	3.488206	5.823358	1.085562
H	3.414790	0.149113	-3.077974
H	8.830168	1.563143	-1.959208
H	3.266308	-4.419707	0.194275
C	0.234740	-0.337865	0.664593
C	1.715201	-0.171615	0.294668
H	-0.349771	-0.312535	-0.265952
H	-0.091088	0.514495	1.273976
C	4.654519	-0.183035	3.467480
C	3.298380	-0.128609	3.788687
C	5.043392	-0.232421	2.127322
C	2.331570	-0.113566	2.781064
H	2.983922	-0.105261	4.828364
C	4.077547	-0.220486	1.123105
H	6.095057	-0.291014	1.861813
C	2.711908	-0.149838	1.433993
H	1.284157	-0.112709	3.054551
H	4.383165	-0.276289	0.081966
H	5.403002	-0.199399	4.255343
H	1.985842	-0.970930	-0.396247
H	-3.464287	6.759289	-0.573932
H	-3.177391	7.843752	4.013047
H	-3.466071	5.457178	4.360646
H	-8.922001	-0.068245	-2.986451
H	-2.161655	-3.177309	-7.280433
C	-3.959918	7.180170	-4.904100
H	-2.951225	6.860474	-5.180845
H	-4.069506	8.234576	-5.182384
H	-4.038046	7.103333	-3.815611