279			
			
C	2.606227	-0.523142	-6.119492
C	1.531714	-1.616707	-5.994142
O	1.116485	-2.218878	-6.989882
N	1.098621	-1.871522	-4.728583
C	0.111125	-2.908056	-4.459348
C	-1.314224	-2.329594	-4.455219
O	-1.575506	-1.277937	-3.852988
C	0.415001	-3.633086	-3.120341
C	-0.383220	-4.908595	-2.953232
C	0.003096	-6.080382	-3.621683
C	-1.533413	-4.946277	-2.153627
C	-0.748637	-7.251777	-3.516709
C	-2.292684	-6.113726	-2.053852
C	-1.908205	-7.268237	-2.738531
N	-2.294369	-3.014024	-5.106984
C	-2.182840	-4.257495	-5.907793
C	-3.645982	-4.665300	-6.124762
C	-4.390929	-3.322085	-6.162862
C	-3.667463	-2.488678	-5.097450
C	3.613141	2.561322	-2.870483
C	4.812291	1.588216	-2.904170
O	5.960837	2.050229	-2.973002
C	2.158965	2.078307	-3.145639
C	1.478823	0.852432	-2.427478
O	1.396145	1.153759	-0.990768
O	1.976417	-0.335468	-2.684838
N	4.549439	0.265590	-2.807538
C	5.609732	-0.732480	-2.799793
C	5.075652	-2.171486	-2.996721
C	4.919864	-2.968093	-1.732976
C	3.767460	-3.209987	-1.021034
C	5.977396	-3.635208	-1.016280
C	5.381965	-4.266401	0.117004
C	7.362360	-3.774962	-1.215622
N	4.039022	-3.989577	0.080989
C	6.129305	-5.019363	1.029508
C	8.109062	-4.519250	-0.307621
C	7.496950	-5.134933	0.805289
C	9.841379	1.369129	-1.265254
C	9.514788	0.374636	-0.144935
C	10.733639	-0.295576	0.518819
C	11.666784	0.719449	1.196224
C	10.282623	-1.366712	1.522580
C	2.655594	7.820496	-1.183549
C	4.026313	7.570210	-0.576402
O	4.951264	8.371601	-0.696599
N	4.159682	6.380428	0.087817
C	5.424519	5.956127	0.670295
C	6.109962	4.779317	-0.048125
C	7.603535	4.742889	0.306068
C	5.445138	3.442875	0.291464
C	-3.408137	-4.278258	5.409054
C	-2.815512	-4.472432	4.154110
C	-3.427158	-2.984586	5.943232
C	-2.263780	-3.411170	3.433868
C	-2.885966	-1.912316	5.236367
C	-2.300547	-2.108569	3.969373
O	-1.816657	-1.026543	3.332899
C	-0.190991	-6.722485	7.159779
C	0.739188	-5.577547	7.587597
C	0.678173	-4.424420	6.566328
C	2.167520	-6.100693	7.803208
C	1.454860	-3.165164	6.964799
C	-9.142576	-1.520484	-2.611329
C	-8.516701	-2.860074	-2.195145
C	-9.326345	-3.500174	-1.049510
C	-7.036044	-2.674004	-1.831534
C	-8.893058	-4.919975	-0.668921
C	-6.985133	-2.804847	4.845336
C	-7.289951	-1.868719	3.699211
C	-8.609238	-1.607452	3.307260
C	-6.251892	-1.218930	3.014909
C	-8.890030	-0.716658	2.268787
C	-6.527055	-0.327928	1.977351
C	-7.848117	-0.071162	1.600821
C	2.336576	-6.644224	2.362093
C	2.285427	-5.329957	2.846287
C	1.602436	-6.936238	1.203043
C	1.536567	-4.337451	2.204376
C	0.850701	-5.965465	0.551726
C	0.776569	-4.613944	1.021779
O	0.067730	-3.718286	0.396453
C	-3.721128	8.328044	1.843180
C	-2.196167	8.464880	1.845090
C	-1.483411	7.306165	1.133802
O	-2.036923	6.142997	1.336021
O	-0.468557	7.511016	0.462272
C	-3.725429	5.694157	4.623253
C	-2.254281	5.642024	5.081636
O	-1.964995	5.620084	6.280809
C	-4.559278	4.609173	5.326488
C	-4.096937	3.157711	5.083868
C	-4.928452	2.187883	5.936242
C	-4.136794	2.744220	3.604947
N	-1.329534	5.598040	4.087839
C	0.109156	5.531461	4.347947
C	0.901516	4.984730	3.152905
C	2.403004	5.051070	3.467067
C	0.477766	3.556203	2.795412
C	-3.904793	5.453260	-1.500436
C	-2.791039	4.456413	-1.484255
C	-2.505155	3.419156	-2.333733
N	-1.798928	4.468433	-0.522000
C	-0.948832	3.475477	-0.783788
N	-1.353515	2.820948	-1.874942
C	-4.929532	5.394543	-6.502312
C	-4.907153	4.022969	-5.856355
C	-3.850272	3.132055	-6.097898
C	-5.923746	3.621249	-4.979739
C	-3.802537	1.884156	-5.474176
C	-5.886572	2.370881	-4.357783
C	-4.823364	1.500321	-4.599643
O	0.091269	0.939396	-2.952529
O	-0.316815	-1.343198	1.193700
H	2.982555	-0.183184	-5.154919
H	2.179026	0.325834	-6.662936
H	1.484655	-3.865971	-3.125558
H	0.235328	-2.965679	-2.273916
H	0.908975	-6.073480	-4.223987
H	-1.796374	-4.072777	-1.567607
H	-0.425266	-8.150722	-4.035597
H	-3.174861	-6.126037	-1.419382
H	-2.494819	-8.179062	-2.649465
H	0.201205	-3.623714	-5.280184
H	-3.777423	-5.263003	-7.031624
H	-3.988139	-5.263028	-5.272678
H	-4.274078	-2.854870	-7.147869
H	-5.462150	-3.414623	-5.961617
H	-3.662820	-1.417075	-5.310945
H	-4.112880	-2.621657	-4.102360
H	-1.619034	-5.022377	-5.374095
H	2.058633	1.837047	-4.208706
H	1.510273	2.945962	-2.976423
H	3.654137	3.024154	-1.878832
H	5.776104	-2.700262	-3.656490
H	4.124578	-2.133388	-3.537783
H	2.757553	-2.879846	-1.214866
H	7.845237	-3.308397	-2.071053
H	9.179774	-4.634807	-0.457955
H	5.646426	-5.498577	1.876065
H	8.104971	-5.711907	1.497549
H	6.182537	-0.676469	-1.863891
H	2.587279	8.875594	-1.450133
H	6.018949	4.950651	-1.128381
H	8.097681	3.901750	-0.190360
H	8.111528	5.664836	0.000774
H	7.748260	4.621830	1.387772
H	5.836646	2.643415	-0.342441
H	4.360041	3.469930	0.146319
H	5.618595	3.173964	1.340069
H	5.271568	5.701626	1.728652
H	-2.771612	-5.470035	3.724504
H	-3.867945	-2.805849	6.921605
H	-1.797090	-3.579769	2.466289
H	-2.889743	-0.907713	5.648630
H	-1.306422	-1.245731	2.495242
H	0.374702	-5.188926	8.552450
H	2.587825	-6.474382	6.861380
H	2.838023	-5.321890	8.179808
H	2.181784	-6.926971	8.524513
H	1.040627	-4.786785	5.595134
H	-0.372841	-4.154639	6.407779
H	1.117308	-2.779115	7.935138
H	2.532587	-3.347402	7.036867
H	1.307738	-2.373026	6.224630
H	0.135855	-7.148989	6.203955
H	-8.572295	-3.539369	-3.060818
H	-6.542838	-3.625713	-1.613828
H	-6.486248	-2.201964	-2.653602
H	-6.927445	-2.034864	-0.947640
H	-9.262601	-2.850560	-0.165848
H	-10.386137	-3.518873	-1.341273
H	-8.926862	-5.591980	-1.535307
H	-7.874501	-4.942473	-0.270748
H	-9.551701	-5.337527	0.100244
H	-9.115839	-0.805557	-1.779948
H	-6.109085	-3.424795	4.637599
H	-7.835191	-3.460679	5.060712
H	-9.426541	-2.106773	3.823608
H	-5.221153	-1.411999	3.299609
H	-9.922026	-0.525625	1.984797
H	-5.706688	0.166684	1.465707
H	-8.061608	0.628474	0.797248
H	1.622865	-7.946286	0.794712
H	2.847985	-5.061987	3.739945
H	0.293261	-6.215610	-0.345119
H	1.514684	-3.324952	2.599545
H	-0.084001	-2.283752	0.825721
H	-1.871214	9.400900	1.380503
H	-1.831590	8.480988	2.881593
H	-4.113630	8.329065	0.819478
H	-4.519163	4.808103	6.403618
H	-5.610211	4.710875	5.017839
H	-3.055423	3.088732	5.425009
H	-4.586194	1.155285	5.808484
H	-4.863973	2.437167	7.001724
H	-5.987264	2.219749	5.647913
H	-3.755246	1.725198	3.478194
H	-3.525018	3.400179	2.978532
H	-5.163938	2.768734	3.217225
H	-4.118460	6.681337	4.895572
H	0.705042	5.636455	2.289756
H	2.995935	4.672714	2.628357
H	2.649209	4.434004	4.339771
H	2.726802	6.077278	3.674690
H	1.070004	3.164546	1.962468
H	0.636644	2.877779	3.640836
H	-0.580561	3.505806	2.524037
H	0.258000	4.899259	5.231036
H	-4.662033	5.156749	-2.230512
H	-4.374244	5.532957	-0.515407
H	-3.022993	3.062046	-3.208280
H	-0.065722	3.213818	-0.222874
H	-4.712809	5.295661	-7.574097
H	-5.940088	5.813989	-6.428841
H	-6.753753	4.296389	-4.782846
H	-3.049980	3.422905	-6.774421
H	-6.683655	2.081199	-3.678638
H	-2.962803	1.216762	-5.646191
H	-4.774179	0.537496	-4.100659
H	10.475936	0.905935	-2.031618
H	10.367039	2.254451	-0.891154
H	8.866369	-0.413434	-0.547712
H	8.922431	0.881550	0.630223
H	11.306920	-0.798277	-0.276446
H	12.519434	0.217297	1.668746
H	12.065361	1.451005	0.486219
H	11.133762	1.273315	1.979511
H	11.141679	-1.879334	1.972111
H	9.646790	-2.122790	1.050622
H	9.704256	-0.915113	2.338263
H	-0.819733	2.003569	-2.308719
H	6.062426	6.842771	0.631277
H	2.546452	7.225808	-2.098348
H	1.826095	7.561997	-0.516853
H	-4.195935	9.159213	2.379048
H	-10.189768	-1.642235	-2.912296
H	3.426593	-0.919947	-6.723503
H	6.317153	-0.474605	-3.598183
H	3.853771	3.354837	-3.584439
H	2.924202	-7.406272	2.865965
H	-0.201901	-7.530769	7.901380
H	-6.760036	-2.243657	5.760491
H	0.490057	6.529572	4.613219
H	-3.830391	-5.114571	5.958838
H	-1.771933	5.203694	0.329463
H	-0.255488	0.038831	-3.109155
H	-1.218087	-6.367122	7.025076
H	-1.636610	5.705383	3.117877
H	1.425187	-1.270738	-3.942251
H	3.354304	5.776808	0.160885
H	3.561095	-0.056404	-2.727041
H	8.923219	1.706455	-1.757505
H	3.347573	-4.267469	0.771649
C	-0.158717	-0.270485	0.279911
C	1.310832	0.009878	-0.098775
H	-0.716733	-0.448683	-0.650483
H	-0.592493	0.623077	0.748084
C	4.127358	0.484372	3.175374
C	2.763099	0.410925	3.451318
C	4.558917	0.426673	1.848323
C	1.835017	0.277837	2.414244
H	2.411446	0.443870	4.479585
C	3.632289	0.304168	0.814634
H	5.619557	0.465713	1.616082
C	2.255973	0.224107	1.078126
H	0.786284	0.172766	2.660340
H	3.975137	0.254611	-0.213829
H	4.848347	0.572566	3.984339
H	1.679777	-0.853631	-0.658811
H	-3.540880	6.452860	-1.765323
H	-4.028119	7.393821	2.311168
H	-3.790049	5.605110	3.535410
H	-8.601305	-1.071181	-3.451346
H	-1.672608	-4.044082	-6.856210
C	-3.921597	6.379363	-5.879219
H	-2.898235	6.000806	-5.960995
H	-3.963816	7.352399	-6.380562
H	-4.129994	6.534219	-4.816142