279			
			
C	2.750195	-0.174704	-6.042521
C	1.740477	-1.330447	-5.951109
O	1.341828	-1.908715	-6.967833
N	1.339010	-1.668905	-4.695330
C	0.371836	-2.740119	-4.483200
C	-1.068638	-2.197181	-4.582955
O	-1.389239	-1.132576	-4.033046
C	0.605771	-3.414174	-3.104669
C	-0.195110	-4.684759	-2.917843
C	0.245766	-5.891630	-3.480885
C	-1.400961	-4.682955	-2.205520
C	-0.508621	-7.060275	-3.362125
C	-2.162731	-5.846675	-2.092085
C	-1.724149	-7.037733	-2.674270
N	-1.996012	-2.923084	-5.260820
C	-1.812693	-4.187680	-6.004271
C	-3.250649	-4.668539	-6.233812
C	-4.042730	-3.359755	-6.373782
C	-3.379727	-2.432405	-5.345594
C	3.516100	2.886790	-2.707181
C	4.764441	1.979598	-2.691323
O	5.887695	2.503542	-2.659866
C	2.133625	2.328564	-3.125098
C	1.424832	1.105913	-2.433371
O	1.173530	1.473095	-1.039395
O	1.981894	-0.079932	-2.564090
N	4.571941	0.638847	-2.690444
C	5.702382	-0.284877	-2.672398
C	5.306959	-1.724715	-3.078417
C	5.090242	-2.668846	-1.929806
C	3.920341	-2.890112	-1.241080
C	6.084776	-3.500647	-1.303039
C	5.433913	-4.208669	-0.248527
C	7.455668	-3.726894	-1.521537
N	4.118085	-3.816527	-0.241298
C	6.111598	-5.124209	0.564750
C	8.134319	-4.629303	-0.709520
C	7.466682	-5.322108	0.323501
C	9.774935	2.025090	-1.012046
C	9.469420	0.808914	-0.129884
C	10.700000	0.096394	0.463763
C	11.518585	1.010746	1.387918
C	10.281633	-1.183730	1.202019
C	2.219997	8.039828	-0.921720
C	3.620330	7.824598	-0.369940
O	4.549487	8.589262	-0.623036
N	3.770583	6.707177	0.405728
C	5.061494	6.298413	0.941858
C	5.672565	5.052668	0.276264
C	7.159374	4.938939	0.640186
C	4.925994	3.772562	0.661497
C	-3.232096	-4.544757	5.284249
C	-2.596455	-4.701554	4.044198
C	-3.304304	-3.258271	5.832118
C	-2.051458	-3.615327	3.352030
C	-2.770869	-2.162614	5.155393
C	-2.140289	-2.325351	3.906475
O	-1.668330	-1.206703	3.311597
C	0.092850	-6.836151	7.040254
C	0.999909	-5.682297	7.492806
C	1.130900	-4.631496	6.372290
C	2.360636	-6.221927	7.959446
C	1.898392	-3.362721	6.758400
C	-8.978577	-1.941721	-2.779116
C	-8.281288	-3.256447	-2.398780
C	-9.040029	-3.954973	-1.252647
C	-6.805078	-3.004831	-2.056002
C	-8.526732	-5.354945	-0.899244
C	-6.879547	-3.271099	4.686327
C	-7.170932	-2.335911	3.536034
C	-8.484393	-2.094458	3.112988
C	-6.127211	-1.666388	2.880401
C	-8.753958	-1.202528	2.072632
C	-6.391120	-0.774282	1.840855
C	-7.706509	-0.536450	1.433843
C	2.694782	-6.497567	2.293905
C	2.666197	-5.157722	2.698020
C	1.817670	-6.895377	1.273312
C	1.793870	-4.237297	2.110741
C	0.940335	-5.997112	0.680364
C	0.880832	-4.623040	1.077917
O	0.039372	-3.799115	0.525506
C	-4.227473	8.101299	1.995074
C	-2.708962	8.300104	2.013915
C	-1.911579	7.159303	1.361448
O	-2.471935	5.987233	1.446016
O	-0.809304	7.384434	0.848166
C	-4.124610	5.407467	4.715156
C	-2.663119	5.445715	5.201138
O	-2.397421	5.453995	6.405984
C	-4.894343	4.251856	5.377884
C	-4.347438	2.839919	5.084484
C	-5.111825	1.793800	5.909130
C	-4.377997	2.476137	3.592562
N	-1.718659	5.445204	4.224980
C	-0.282889	5.476632	4.508482
C	0.554510	4.874646	3.370519
C	2.045941	5.060083	3.684281
C	0.221756	3.396659	3.131674
C	-4.182435	5.299608	-1.414669
C	-2.973589	4.431166	-1.478961
C	-2.594666	3.494448	-2.402481
N	-1.971240	4.485907	-0.529161
C	-1.022489	3.613945	-0.870261
N	-1.376023	2.998101	-2.002147
C	-5.114388	5.297726	-6.435007
C	-4.918758	3.896731	-5.886425
C	-3.764511	3.160667	-6.196527
C	-5.853427	3.323161	-5.014185
C	-3.537868	1.904026	-5.633487
C	-5.636772	2.061722	-4.453508
C	-4.473197	1.352269	-4.753308
O	0.105152	1.139399	-3.114535
O	-0.070923	-1.338202	1.055692
H	3.158137	0.117024	-5.075145
H	2.251881	0.687602	-6.497170
H	1.675086	-3.637428	-3.041772
H	0.377295	-2.702855	-2.306939
H	1.195698	-5.914697	-4.010415
H	-1.719594	-3.774407	-1.707706
H	-0.143943	-7.986891	-3.798608
H	-3.090242	-5.827040	-1.526421
H	-2.313499	-7.945798	-2.574555
H	0.537974	-3.468280	-5.280241
H	-3.333491	-5.324100	-7.105799
H	-3.591409	-5.227216	-5.355156
H	-3.916677	-2.950925	-7.383286
H	-5.115002	-3.479560	-6.193934
H	-3.392088	-1.381080	-5.642391
H	-3.860381	-2.501698	-4.360813
H	-1.228378	-4.904646	-5.428186
H	2.167538	2.043414	-4.180672
H	1.432630	3.168933	-3.069329
H	3.447607	3.309366	-1.698973
H	6.103925	-2.128867	-3.715024
H	4.411889	-1.685615	-3.708209
H	2.954133	-2.431977	-1.390257
H	7.980048	-3.201347	-2.316217
H	9.194240	-4.809163	-0.873178
H	5.584607	-5.658809	1.349426
H	8.021802	-6.023968	0.941060
H	6.174212	-0.300399	-1.680366
H	2.144153	9.072273	-1.268263
H	5.598086	5.182871	-0.810825
H	7.604976	4.062267	0.160705
H	7.720055	5.823860	0.317920
H	7.293803	4.832321	1.724847
H	5.307355	2.920290	0.094090
H	3.851693	3.840392	0.459183
H	5.042148	3.552423	1.729603
H	4.966956	6.128074	2.023775
H	-2.512134	-5.690498	3.600541
H	-3.780450	-3.102908	6.797599
H	-1.554828	-3.759891	2.393781
H	-2.817395	-1.164246	5.579624
H	-1.144980	-1.358842	2.483172
H	0.519116	-5.193765	8.355552
H	2.896006	-6.692911	7.125554
H	3.001744	-5.430549	8.360179
H	2.238827	-6.977887	8.744941
H	1.607880	-5.096325	5.499247
H	0.124276	-4.347959	6.042311
H	1.441160	-2.868591	7.624884
H	2.944332	-3.571353	7.009026
H	1.898955	-2.646607	5.931073
H	0.531483	-7.358722	6.181550
H	-8.318885	-3.921927	-3.276049
H	-6.258173	-3.935468	-1.878755
H	-6.297708	-2.477851	-2.871829
H	-6.712541	-2.389275	-1.153771
H	-8.998539	-3.315978	-0.359994
H	-10.101270	-4.025204	-1.530947
H	-8.534927	-6.014708	-1.775647
H	-7.503508	-5.327758	-0.513576
H	-9.152186	-5.818767	-0.128968
H	-8.969268	-1.240848	-1.935434
H	-5.969005	-3.850614	4.513099
H	-7.709619	-3.964765	4.856539
H	-9.305910	-2.609766	3.606474
H	-5.100902	-1.844786	3.189455
H	-9.781633	-1.026394	1.764412
H	-5.566697	-0.264222	1.351533
H	-7.911724	0.164373	0.629214
H	1.824095	-7.930748	0.933917
H	3.340257	-4.815019	3.481921
H	0.267152	-6.319103	-0.108540
H	1.781658	-3.204323	2.447634
H	0.038397	-2.347111	0.843040
H	-2.416054	9.235808	1.526590
H	-2.360924	8.372627	3.053840
H	-4.604738	8.049744	0.967344
H	-4.867075	4.416337	6.461277
H	-5.949213	4.301718	5.070017
H	-3.300166	2.821240	5.414887
H	-4.710084	0.788302	5.743976
H	-5.052706	2.010652	6.981957
H	-6.173198	1.772490	5.629475
H	-3.948606	1.482108	3.428346
H	-3.804906	3.182522	2.984835
H	-5.408253	2.462435	3.212907
H	-4.587479	6.358499	5.005916
H	0.326925	5.441673	2.456281
H	2.668938	4.637291	2.889574
H	2.318252	4.545598	4.614206
H	2.306247	6.119073	3.795142
H	0.825217	2.980266	2.318924
H	0.432042	2.796760	4.024723
H	-0.833590	3.257021	2.880588
H	-0.121045	4.927807	5.442874
H	-4.945174	4.935026	-2.107384
H	-4.597228	5.317615	-0.402873
H	-3.089580	3.143281	-3.291777
H	-0.105698	3.409365	-0.341399
H	-4.935507	5.297893	-7.518308
H	-6.156858	5.605151	-6.291137
H	-6.757542	3.874770	-4.765370
H	-3.025339	3.585096	-6.872119
H	-6.369447	1.641647	-3.769929
H	-2.622792	1.360914	-5.850361
H	-4.271384	0.392615	-4.288878
H	10.486898	1.767293	-1.806462
H	10.202360	2.855472	-0.440017
H	8.900282	0.080090	-0.720119
H	8.802904	1.111631	0.690258
H	11.349133	-0.196103	-0.377259
H	12.389417	0.483314	1.795109
H	11.883352	1.900975	0.865861
H	10.910094	1.348744	2.236246
H	11.153878	-1.722527	1.591617
H	9.727173	-1.866366	0.549834
H	9.632216	-0.947603	2.053903
H	-0.817799	2.222875	-2.470669
H	5.717315	7.160535	0.795628
H	2.060019	7.377368	-1.779466
H	1.426102	7.840190	-0.194380
H	-4.740853	8.931967	2.495598
H	-10.024594	-2.108504	-3.061829
H	3.556930	-0.480312	-6.713811
H	6.456998	0.116071	-3.359037
H	3.770856	3.720740	-3.368243
H	3.375211	-7.207122	2.756983
H	-0.054064	-7.571506	7.841041
H	-6.721671	-2.711023	5.616303
H	0.041486	6.512414	4.691265
H	-3.646249	-5.400552	5.809599
H	-2.037637	5.129444	0.378502
H	-0.210678	0.227074	-3.278106
H	-0.890011	-6.465485	6.730980
H	-2.017598	5.513863	3.250105
H	1.599153	-1.060664	-3.888388
H	2.958754	6.135235	0.584975
H	3.601367	0.264520	-2.613271
H	8.859229	2.383691	-1.493505
H	3.415105	-4.101935	0.435016
C	0.329935	0.571713	-0.304846
C	0.993578	-0.600931	0.463097
H	-0.420377	0.127478	-0.966021
H	-0.203799	1.182695	0.433287
C	4.006249	0.568433	3.358634
C	2.718507	0.239199	3.783551
C	4.305638	0.537707	1.994803
C	1.741569	-0.128333	2.854642
H	2.471677	0.257515	4.842647
C	3.326841	0.184013	1.065791
H	5.307429	0.780109	1.651898
C	2.034680	-0.163046	1.484753
H	0.750597	-0.407592	3.193400
H	3.566035	0.162290	0.007967
H	4.771708	0.838309	4.082194
H	1.494424	-1.224339	-0.283763
H	-3.944778	6.336812	-1.681049
H	-4.505647	7.172853	2.491790
H	-4.166192	5.342698	3.624632
H	-8.476606	-1.452235	-3.621106
H	-1.292646	-3.991519	-6.951491
C	-4.177474	6.325187	-5.771258
H	-3.127965	6.053549	-5.917984
H	-4.330039	7.325848	-6.190527
H	-4.355424	6.376783	-4.692822