279			
			
C	2.335683	-0.382970	-6.199287
C	1.360478	-1.558352	-6.075362
O	0.903149	-2.134968	-7.062099
N	1.006062	-1.925474	-4.799191
C	-0.120476	-2.832758	-4.575940
C	-1.433679	-2.073675	-4.874769
O	-1.557241	-0.883223	-4.541536
C	-0.078244	-3.329635	-3.106830
C	-1.164011	-4.320286	-2.748320
C	-1.047393	-5.673213	-3.100265
C	-2.312039	-3.909411	-2.060054
C	-2.058033	-6.585990	-2.792087
C	-3.323671	-4.818083	-1.747439
C	-3.203650	-6.158845	-2.117825
N	-2.453010	-2.733842	-5.473928
C	-2.459057	-4.111594	-6.017075
C	-3.943712	-4.361122	-6.309213
C	-4.467682	-2.969337	-6.696686
C	-3.719104	-2.030315	-5.741629
C	3.444542	2.552937	-2.847461
C	4.308233	1.417954	-3.418906
O	4.654953	1.433087	-4.602100
C	2.084520	2.641723	-3.571536
C	1.256270	1.368302	-3.531730
O	1.406533	1.498689	0.062751
O	1.578070	0.347204	-2.937084
N	4.667349	0.426980	-2.552349
C	5.430382	-0.745531	-2.978006
C	4.610948	-2.049045	-3.208613
C	4.647515	-3.027808	-2.069697
C	3.610276	-3.418417	-1.250912
C	5.808242	-3.754183	-1.612772
C	5.392917	-4.555995	-0.507370
C	7.152308	-3.817451	-2.023936
N	4.052584	-4.332876	-0.320922
C	6.279476	-5.387440	0.186010
C	8.035214	-4.646169	-1.338268
C	7.602579	-5.420153	-0.240469
C	9.711011	1.276330	-1.472449
C	9.209687	0.176183	-0.529549
C	10.288615	-0.446717	0.378772
C	10.922442	0.581072	1.328576
C	9.711305	-1.629525	1.170508
C	2.553771	7.734945	-0.904557
C	3.912159	7.475282	-0.277297
O	4.734067	8.364317	-0.063115
N	4.166673	6.169555	0.053615
C	5.366855	5.784110	0.786702
C	6.631029	5.660741	-0.086934
C	7.846983	5.364745	0.800843
C	6.468925	4.604058	-1.184640
C	-3.366369	-4.628039	5.317954
C	-2.771333	-4.641735	4.050972
C	-3.132233	-3.532472	6.157115
C	-1.947828	-3.599984	3.623255
C	-2.312307	-2.484486	5.747570
C	-1.692202	-2.511369	4.481798
O	-0.877790	-1.494953	4.166621
C	-0.110240	-7.154695	6.868097
C	0.936402	-6.112780	7.293504
C	0.813861	-4.854764	6.412871
C	2.345657	-6.722530	7.272868
C	1.694226	-3.670991	6.823828
C	-9.313586	-1.505898	-2.408528
C	-8.412275	-2.744798	-2.516328
C	-8.749733	-3.757924	-1.403844
C	-6.931157	-2.336586	-2.503371
C	-8.048113	-5.114168	-1.533283
C	-6.952414	-3.122697	4.920648
C	-6.866765	-2.244147	3.693619
C	-8.023960	-1.828253	3.021911
C	-5.624028	-1.803037	3.215866
C	-7.948087	-0.983557	1.912612
C	-5.544017	-0.960803	2.105975
C	-6.705660	-0.544361	1.451376
C	2.281967	-6.871148	2.009142
C	2.443959	-5.606056	2.585400
C	1.451391	-6.982964	0.885964
C	1.807057	-4.480507	2.059922
C	0.807365	-5.874677	0.348018
C	0.955143	-4.569868	0.911895
O	0.360087	-3.533722	0.387035
C	-3.733624	8.123844	2.320145
C	-2.314433	8.683387	2.474463
C	-1.275872	7.858064	1.681854
O	-1.419273	6.581242	1.814732
O	-0.419230	8.445058	1.006808
C	-3.669454	5.370042	4.980715
C	-2.195737	5.114497	5.367865
O	-1.903708	4.666119	6.481427
C	-4.646255	4.540513	5.821256
C	-4.622493	3.021714	5.557772
C	-5.469681	2.288493	6.607869
C	-5.092589	2.660533	4.141399
N	-1.279899	5.431487	4.419571
C	0.155282	5.210492	4.590519
C	0.785810	4.571212	3.345359
C	2.306033	4.466228	3.524249
C	0.151802	3.211235	3.040773
C	-4.021459	5.399618	-1.140150
C	-2.732127	4.620744	-1.109332
C	-2.295813	3.519780	-1.820872
N	-1.684346	4.935904	-0.267777
C	-0.698653	4.038365	-0.500306
N	-1.018620	3.154931	-1.435181
C	-5.186362	5.563786	-6.108887
C	-5.224234	4.197769	-5.450573
C	-4.161558	3.294881	-5.607218
C	-6.303627	3.814623	-4.644503
C	-4.168717	2.053026	-4.971002
C	-6.321517	2.570892	-4.008788
C	-5.253169	1.688452	-4.168236
O	0.149724	1.456031	-4.274361
O	0.426110	-1.555311	1.910594
H	3.073727	-0.325834	-5.400177
H	1.758217	0.546610	-6.196839
H	0.904905	-3.783512	-2.949084
H	-0.137987	-2.465359	-2.439029
H	-0.147759	-6.015420	-3.607184
H	-2.400579	-2.872783	-1.749690
H	-1.943409	-7.631662	-3.065574
H	-4.194874	-4.481059	-1.192546
H	-3.986057	-6.868929	-1.864262
H	-0.007208	-3.668652	-5.269138
H	-4.090036	-5.114959	-7.088280
H	-4.440180	-4.713362	-5.398335
H	-4.197634	-2.741905	-7.734573
H	-5.553170	-2.874174	-6.604751
H	-3.520881	-1.042089	-6.162524
H	-4.266326	-1.883416	-4.801869
H	-2.054306	-4.821917	-5.296641
H	2.236575	2.892476	-4.626687
H	1.461362	3.432223	-3.138881
H	3.272463	2.425075	-1.774875
H	5.018585	-2.533573	-4.107182
H	3.577839	-1.785990	-3.449438
H	2.571495	-3.115834	-1.232941
H	7.497439	-3.231379	-2.872186
H	9.073653	-4.704954	-1.654601
H	5.936053	-5.987365	1.023671
H	8.314993	-6.056964	0.277398
H	6.216077	-0.933390	-2.237663
H	2.611770	8.656112	-1.485869
H	6.775361	6.640023	-0.559422
H	8.766674	5.314695	0.207285
H	7.983014	6.138415	1.565107
H	7.734511	4.402162	1.315696
H	7.355308	4.559293	-1.827210
H	5.606989	4.830863	-1.818508
H	6.318333	3.604763	-0.756834
H	5.161745	4.827698	1.281600
H	-2.939465	-5.482546	3.382807
H	-3.580440	-3.500594	7.147786
H	-1.482574	-3.626183	2.641721
H	-2.109354	-1.638232	6.396704
H	-0.409052	-1.623157	3.282767
H	0.713061	-5.815153	8.331192
H	2.624737	-7.013055	6.252366
H	3.101081	-6.018289	7.635899
H	2.400175	-7.620655	7.900765
H	1.026278	-5.123664	5.369365
H	-0.233665	-4.535941	6.433432
H	1.517532	-3.385513	7.868947
H	2.762445	-3.889013	6.715098
H	1.470975	-2.800254	6.199798
H	0.110818	-7.534797	5.863401
H	-8.622857	-3.229470	-3.483163
H	-6.266378	-3.190335	-2.666533
H	-6.721340	-1.601643	-3.289116
H	-6.660786	-1.883875	-1.542058
H	-8.505622	-3.309628	-0.431076
H	-9.836649	-3.921473	-1.400743
H	-8.268830	-5.584522	-2.499436
H	-6.960945	-5.022812	-1.450897
H	-8.376142	-5.801778	-0.746587
H	-9.147562	-0.985766	-1.457737
H	-6.076286	-3.771104	5.004435
H	-7.852383	-3.746633	4.904187
H	-8.996061	-2.165848	3.376003
H	-4.712358	-2.121084	3.713865
H	-8.859853	-0.664061	1.413687
H	-4.571329	-0.630015	1.754239
H	-6.640568	0.120949	0.595094
H	1.307853	-7.956769	0.418875
H	3.085106	-5.486705	3.457616
H	0.162820	-5.975887	-0.519811
H	1.949409	-3.505068	2.515714
H	0.396435	-2.359325	1.228500
H	-2.255515	9.728472	2.153811
H	-2.025748	8.651052	3.534854
H	-4.073244	8.204527	1.280246
H	-4.402248	4.714402	6.874805
H	-5.667799	4.914417	5.655599
H	-3.584006	2.688760	5.676076
H	-5.441690	1.204005	6.454539
H	-5.109921	2.495676	7.622024
H	-6.521002	2.602742	6.554972
H	-5.075427	1.577215	3.983292
H	-4.461243	3.111746	3.370036
H	-6.122638	3.002169	3.971996
H	-3.869220	6.437930	5.141136
H	0.576736	5.244455	2.503827
H	2.776626	4.015110	2.644138
H	2.559898	3.836521	4.387176
H	2.760112	5.451117	3.685012
H	0.554911	2.785005	2.118512
H	0.332200	2.504062	3.861098
H	-0.930993	3.302581	2.920092
H	0.279421	4.572164	5.471274
H	-4.702876	4.957966	-1.872503
H	-4.520209	5.395904	-0.163538
H	-2.829233	2.978236	-2.589983
H	0.231784	4.054001	0.048806
H	-4.950354	5.448317	-7.175472
H	-6.183671	6.017445	-6.060891
H	-7.137066	4.500625	-4.509205
H	-3.309808	3.572510	-6.223595
H	-7.166319	2.296752	-3.382492
H	-3.324576	1.377269	-5.078151
H	-5.253311	0.729158	-3.659094
H	10.534521	0.915280	-2.100428
H	10.065902	2.155763	-0.926616
H	8.759103	-0.627393	-1.126738
H	8.399914	0.572985	0.098491
H	11.085670	-0.835301	-0.275455
H	11.678527	0.110154	1.967701
H	11.409076	1.398737	0.787533
H	10.162563	1.022390	1.985530
H	10.481977	-2.111227	1.783942
H	9.280995	-2.389118	0.509278
H	8.915444	-1.292871	1.846333
H	0.605359	1.562692	-0.487639
H	5.547405	6.534250	1.564850
H	2.240511	6.913119	-1.556685
H	1.775517	7.862840	-0.138390
H	-4.457567	8.662075	2.945440
H	-10.374608	-1.776926	-2.458775
H	2.843741	-0.466076	-7.161165
H	5.908935	-0.443584	-3.910889
H	3.987875	3.488838	-3.010019
H	2.783195	-7.742222	2.422696
H	-0.129461	-8.011083	7.553617
H	-6.991037	-2.517090	5.835497
H	0.658851	6.165652	4.803765
H	-3.985722	-5.458030	5.647015
H	-1.624302	5.669985	0.479460
H	-0.368642	0.617444	-4.213710
H	-1.111660	-6.713529	6.833832
H	-1.557125	5.848667	3.520590
H	1.214834	-1.273111	-4.043682
H	3.427913	5.491333	-0.054852
H	4.232941	0.416243	-1.639602
H	8.908882	1.610301	-2.139600
H	3.471507	-4.699800	0.426836
C	0.296633	-0.295573	1.290661
C	1.559403	0.142397	0.520176
H	-0.553379	-0.271178	0.587446
H	0.085888	0.446601	2.068038
C	5.238269	0.018251	2.815992
C	4.137283	0.733361	3.293633
C	5.134468	-0.672117	1.609573
C	2.947188	0.764134	2.568363
H	4.200837	1.265718	4.239172
C	3.939497	-0.633324	0.885357
H	5.971945	-1.251348	1.230139
C	2.832355	0.086312	1.347220
H	2.097280	1.309295	2.958692
H	3.859629	-1.200841	-0.036729
H	6.163443	-0.008743	3.386420
H	1.685913	-0.523303	-0.344493
H	-3.855633	6.448691	-1.415363
H	-3.754727	7.068170	2.589219
H	-3.804786	5.195449	3.908702
H	-9.109208	-0.793041	-3.215101
H	-1.854245	-4.150552	-6.932998
C	-4.157777	6.517791	-5.471756
H	-3.147720	6.101177	-5.524509
H	-4.152990	7.486795	-5.983077
H	-4.384168	6.689214	-4.415113