279			
			
C	2.586922	-0.512968	-6.131958
C	1.536666	-1.627348	-6.006286
O	1.160916	-2.263866	-6.994756
N	1.069516	-1.852636	-4.746275
C	0.097341	-2.900002	-4.466580
C	-1.332781	-2.334181	-4.437702
O	-1.598099	-1.297688	-3.810755
C	0.425319	-3.633016	-3.138243
C	-0.365715	-4.913183	-2.971444
C	0.022361	-6.080796	-3.645957
C	-1.511683	-4.957959	-2.166018
C	-0.723518	-7.255924	-3.540151
C	-2.264778	-6.129238	-2.065275
C	-1.878435	-7.279953	-2.755357
N	-2.310649	-3.009421	-5.100035
C	-2.200426	-4.248899	-5.909491
C	-3.663423	-4.665810	-6.108387
C	-4.418461	-3.327881	-6.130548
C	-3.687527	-2.492815	-5.071419
C	3.602364	2.569070	-2.883301
C	4.799231	1.597062	-2.927808
O	5.946308	2.055734	-3.001263
C	2.135942	2.081008	-3.096865
C	1.538150	0.856544	-2.334001
O	1.409368	1.132926	-0.956212
O	1.932899	-0.322661	-2.648199
N	4.539775	0.271513	-2.837690
C	5.600109	-0.724205	-2.821166
C	5.068783	-2.166171	-3.006042
C	4.920963	-2.956735	-1.737191
C	3.770535	-3.212631	-1.026455
C	5.986096	-3.608564	-1.017159
C	5.397277	-4.243951	0.116871
C	7.372522	-3.734380	-1.215870
N	4.050983	-3.984464	0.078315
C	6.151907	-4.986545	1.031901
C	8.126194	-4.469645	-0.306376
C	7.520366	-5.088823	0.807996
C	9.835581	1.377359	-1.297153
C	9.515460	0.386235	-0.172349
C	10.738502	-0.279705	0.487751
C	11.672417	0.738129	1.159477
C	10.292706	-1.350453	1.494139
C	2.648190	7.826549	-1.189188
C	4.038080	7.539530	-0.646611
O	4.994791	8.279868	-0.868382
N	4.153359	6.385775	0.082843
C	5.423025	5.961440	0.655049
C	6.104078	4.780697	-0.061500
C	7.598336	4.745446	0.289509
C	5.436531	3.447130	0.283510
C	-3.392865	-4.279496	5.410843
C	-2.803253	-4.465908	4.153897
C	-3.404366	-2.991486	5.958578
C	-2.245746	-3.400676	3.444825
C	-2.856560	-1.915465	5.263101
C	-2.272684	-2.103936	3.994634
O	-1.778474	-1.020657	3.368828
C	-0.169942	-6.724245	7.150174
C	0.754177	-5.575395	7.580645
C	0.684309	-4.419142	6.563466
C	2.185864	-6.091027	7.791908
C	1.461949	-3.159753	6.959835
C	-9.151360	-1.516688	-2.590551
C	-8.537469	-2.863992	-2.181625
C	-9.355977	-3.505220	-1.042848
C	-7.056534	-2.691997	-1.812164
C	-8.934592	-4.930350	-0.668780
C	-6.971911	-2.806661	4.858743
C	-7.279675	-1.872677	3.711636
C	-8.599277	-1.623422	3.313272
C	-6.244286	-1.212419	3.033359
C	-8.882956	-0.734087	2.274272
C	-6.522194	-0.322786	1.995358
C	-7.843742	-0.078142	1.612348
C	2.343666	-6.641227	2.345242
C	2.284350	-5.331602	2.840255
C	1.630746	-6.923382	1.170840
C	1.547034	-4.333501	2.193841
C	0.891392	-5.946504	0.514437
C	0.809905	-4.600083	0.995412
O	0.114041	-3.697109	0.363283
C	-3.719868	8.329694	1.856458
C	-2.200340	8.506415	1.796192
C	-1.466704	7.311636	1.160495
O	-2.021114	6.162078	1.390376
O	-0.424708	7.498743	0.519109
C	-3.715335	5.693480	4.634324
C	-2.242602	5.629412	5.090670
O	-1.953461	5.583268	6.290177
C	-4.554029	4.607556	5.329447
C	-4.100370	3.155999	5.072202
C	-4.935504	2.182679	5.917127
C	-4.145963	2.757500	3.589428
N	-1.321039	5.603253	4.095056
C	0.118482	5.532138	4.347755
C	0.901944	4.986865	3.145634
C	2.405830	5.049108	3.449355
C	0.471555	3.560010	2.789886
C	-3.912401	5.457657	-1.489019
C	-2.817061	4.440234	-1.475915
C	-2.540437	3.390768	-2.317184
N	-1.820526	4.435566	-0.522702
C	-0.990552	3.417887	-0.798722
N	-1.396785	2.758477	-1.880664
C	-4.951636	5.402828	-6.487947
C	-4.939567	4.028363	-5.848852
C	-3.885514	3.133563	-6.086802
C	-5.968538	3.624525	-4.988118
C	-3.852023	1.880377	-5.473832
C	-5.945757	2.368490	-4.377571
C	-4.884797	1.494487	-4.614973
O	-0.031013	0.985721	-2.948757
O	-0.292338	-1.362280	1.226999
H	2.985213	-0.187971	-5.170718
H	2.130880	0.343631	-6.639255
H	1.495791	-3.861230	-3.160685
H	0.252359	-2.974458	-2.283371
H	0.924651	-6.067941	-4.253550
H	-1.776053	-4.086810	-1.576994
H	-0.399150	-8.151761	-4.063679
H	-3.143584	-6.147406	-1.426405
H	-2.460266	-8.193711	-2.665655
H	0.185797	-3.607104	-5.294609
H	-3.802772	-5.260311	-7.016122
H	-3.989445	-5.269900	-5.254518
H	-4.318703	-2.855710	-7.115017
H	-5.486012	-3.429360	-5.915291
H	-3.692350	-1.420810	-5.282786
H	-4.118297	-2.630659	-4.070887
H	-1.623676	-5.011606	-5.386833
H	1.989289	1.831558	-4.150834
H	1.489254	2.940433	-2.894326
H	3.677765	3.065544	-1.910708
H	5.768058	-2.695894	-3.666057
H	4.115808	-2.135537	-3.544915
H	2.754636	-2.904118	-1.224582
H	7.851240	-3.265288	-2.072219
H	9.197760	-4.575530	-0.456851
H	5.673738	-5.468821	1.879356
H	8.134132	-5.658180	1.501346
H	6.171759	-0.658107	-1.885684
H	2.611671	8.871719	-1.498345
H	6.010553	4.951075	-1.141584
H	8.098036	3.911738	-0.214054
H	8.101324	5.672117	-0.009676
H	7.745739	4.617409	1.370095
H	5.829003	2.642342	-0.343278
H	4.351861	3.478528	0.135875
H	5.606813	3.183271	1.334043
H	5.275106	5.713049	1.715127
H	-2.767342	-5.459395	3.714157
H	-3.844852	-2.820456	6.938375
H	-1.782796	-3.561751	2.474487
H	-2.854863	-0.914687	5.684380
H	-1.275352	-1.243532	2.529112
H	0.389239	-5.192398	8.547498
H	2.607290	-6.457734	6.847778
H	2.852259	-5.310233	8.171638
H	2.205848	-6.920817	8.508990
H	1.040644	-4.779065	5.589064
H	-0.368129	-4.149999	6.413462
H	1.131688	-2.777844	7.934247
H	2.540625	-3.339928	7.022306
H	1.306655	-2.365148	6.223975
H	0.159005	-7.146683	6.193242
H	-8.595833	-3.537105	-3.052009
H	-6.572344	-3.648871	-1.596514
H	-6.500074	-2.221349	-2.630516
H	-6.945415	-2.056853	-0.925720
H	-9.291140	-2.861180	-0.155234
H	-10.414693	-3.514829	-1.338851
H	-8.970368	-5.597233	-1.539084
H	-7.917642	-4.962713	-0.267137
H	-9.599043	-5.347376	0.095689
H	-9.122789	-0.808155	-1.753855
H	-6.092592	-3.422534	4.652344
H	-7.818919	-3.466702	5.073219
H	-9.414539	-2.130602	3.825201
H	-5.213243	-1.395724	3.323639
H	-9.915261	-0.551782	1.985669
H	-5.704290	0.181574	1.489377
H	-8.059377	0.621263	0.809222
H	1.658181	-7.929861	0.754503
H	2.830783	-5.071790	3.746081
H	0.350135	-6.188370	-0.394295
H	1.517495	-3.324866	2.598009
H	-0.061864	-2.302044	0.839852
H	-1.917909	9.411254	1.248115
H	-1.803728	8.621881	2.814958
H	-4.141633	8.220441	0.850579
H	-4.510573	4.795855	6.408416
H	-5.605070	4.717580	5.023753
H	-3.058607	3.078531	5.410654
H	-4.599941	1.149160	5.778372
H	-4.867110	2.421121	6.984929
H	-5.994894	2.223589	5.631853
H	-3.771734	1.736960	3.452643
H	-3.531506	3.415065	2.967651
H	-5.173744	2.792626	3.204225
H	-4.102830	6.680297	4.916257
H	0.698016	5.638868	2.284808
H	2.992718	4.666376	2.607740
H	2.657452	4.433291	4.321677
H	2.734407	6.074708	3.653053
H	1.056377	3.169244	1.951179
H	0.632277	2.880363	3.634402
H	-0.587772	3.516842	2.523085
H	0.270332	4.896817	5.228299
H	-4.685043	5.166272	-2.205648
H	-4.369460	5.558879	-0.499644
H	-3.078598	3.054858	-3.188861
H	-0.111621	3.164295	-0.227296
H	-4.736037	5.305448	-7.560398
H	-5.960793	5.826024	-6.414910
H	-6.796012	4.303314	-4.793313
H	-3.075173	3.426722	-6.750248
H	-6.750822	2.078369	-3.708054
H	-3.011396	1.212608	-5.639513
H	-4.845779	0.529095	-4.120092
H	10.469544	0.913565	-2.063636
H	10.359341	2.265686	-0.927782
H	8.866966	-0.404722	-0.569592
H	8.925689	0.894684	0.603777
H	11.309288	-0.782768	-0.309084
H	12.528329	0.238345	1.628505
H	12.066070	1.469651	0.446696
H	11.141925	1.291745	1.944613
H	11.153464	-1.867296	1.935257
H	9.649862	-2.101984	1.024523
H	9.722643	-0.898379	2.315367
H	-0.716378	1.767859	-2.426706
H	6.066019	6.844081	0.605590
H	2.463825	7.201155	-2.070733
H	1.843882	7.630926	-0.471658
H	-4.203841	9.195729	2.326137
H	-10.198083	-1.628339	-2.896990
H	3.396459	-0.879487	-6.767851
H	6.306262	-0.471175	-3.621662
H	3.813420	3.340070	-3.630119
H	2.921991	-7.407876	2.852798
H	-0.176382	-7.534399	7.889740
H	-6.750865	-2.243998	5.774005
H	0.504192	6.528618	4.613528
H	-3.820373	-5.118426	5.952567
H	-1.761649	5.135094	0.294793
H	-0.424680	0.093510	-3.047132
H	-1.198969	-6.374141	7.016551
H	-1.629138	5.735208	3.125155
H	1.377279	-1.241916	-3.973415
H	3.320150	5.846506	0.265231
H	3.565883	-0.055023	-2.750733
H	8.915516	1.710833	-1.788307
H	3.362112	-4.268565	0.769030
C	-0.145416	-0.283610	0.323034
C	1.324396	-0.017881	-0.053320
H	-0.707593	-0.453557	-0.606297
H	-0.572664	0.609423	0.795895
C	4.149183	0.487781	3.201839
C	2.784729	0.430748	3.481044
C	4.580078	0.402603	1.876247
C	1.854070	0.288931	2.448037
H	2.434800	0.485444	4.508648
C	3.651150	0.268242	0.846274
H	5.640587	0.429301	1.642446
C	2.274934	0.208262	1.113909
H	0.804385	0.200093	2.696266
H	3.994826	0.194090	-0.180685
H	4.871405	0.585246	4.008435
H	1.687090	-0.881780	-0.613206
H	-3.537672	6.449184	-1.771256
H	-3.986139	7.436732	2.419297
H	-3.780174	5.615124	3.545908
H	-8.603029	-1.065018	-3.424662
H	-1.704928	-4.027209	-6.863775
C	-3.942183	6.387421	-5.866957
H	-2.918736	6.009710	-5.951721
H	-3.987310	7.360363	-6.368283
H	-4.146588	6.540966	-4.803035