279			
			
C	2.521695	0.303821	-6.089478
C	1.629338	-0.939236	-6.047254
O	1.326046	-1.555480	-7.067977
N	1.187526	-1.318476	-4.803446
C	0.160812	-2.349116	-4.655055
C	-1.233769	-1.681459	-4.723748
O	-1.439252	-0.602258	-4.158691
C	0.359456	-3.115073	-3.322093
C	-0.448833	-4.391664	-3.230005
C	0.057386	-5.592612	-3.749128
C	-1.723375	-4.404307	-2.647371
C	-0.690535	-6.769752	-3.698521
C	-2.474488	-5.579834	-2.594738
C	-1.962666	-6.766433	-3.123057
N	-2.232404	-2.308537	-5.397296
C	-2.167273	-3.560443	-6.169637
C	-3.644243	-3.905384	-6.400039
C	-4.315222	-2.526647	-6.503537
C	-3.564697	-1.686323	-5.461191
C	3.609388	2.960323	-2.505658
C	4.808032	2.015809	-2.676482
O	5.947559	2.486153	-2.695717
C	2.155324	2.429480	-2.606460
C	1.709287	1.248893	-1.742010
O	1.232729	1.588249	-0.547110
O	1.757215	0.088409	-2.150800
N	4.573419	0.681977	-2.800641
C	5.680537	-0.255951	-2.960001
C	5.198420	-1.684777	-3.299631
C	5.083423	-2.611411	-2.123066
C	3.953756	-2.938671	-1.409100
C	6.167381	-3.335413	-1.508464
C	5.610354	-4.087091	-0.432296
C	7.547519	-3.435172	-1.760018
N	4.263078	-3.823517	-0.400392
C	6.390207	-4.923088	0.375156
C	8.326053	-4.260513	-0.955684
C	7.751214	-4.996974	0.102224
C	9.930839	1.744396	-1.343842
C	9.678294	0.616151	-0.337317
C	10.943756	-0.069601	0.213746
C	11.840286	0.897773	1.001595
C	10.569010	-1.282871	1.077520
C	2.613657	7.921790	-0.094452
C	4.046907	7.495706	0.170879
O	5.006205	8.047473	-0.365001
N	4.194607	6.429071	1.017558
C	5.507095	5.908722	1.373585
C	5.928706	4.631460	0.621114
C	7.415100	4.344601	0.872901
C	5.069551	3.421387	1.007133
C	-2.863240	-5.108013	5.086184
C	-2.240401	-4.967462	3.840308
C	-2.787728	-4.040883	5.990737
C	-1.559725	-3.798834	3.487869
C	-2.114327	-2.866535	5.657096
C	-1.489457	-2.733515	4.402837
O	-0.854024	-1.563861	4.159387
C	0.486037	-7.669303	6.355629
C	1.538478	-6.725636	6.955714
C	1.508942	-5.360521	6.240726
C	2.927877	-7.380787	6.918651
C	2.419139	-4.290462	6.853606
C	-9.025560	-1.480913	-2.240859
C	-8.256871	-2.801062	-2.400843
C	-8.730927	-3.829725	-1.354749
C	-6.743409	-2.549504	-2.332237
C	-8.159827	-5.240712	-1.530542
C	-6.494780	-3.675412	4.878506
C	-6.603897	-2.697148	3.731744
C	-7.851089	-2.243820	3.282788
C	-5.449280	-2.197903	3.110061
C	-7.947292	-1.305604	2.252310
C	-5.539834	-1.261910	2.079304
C	-6.790379	-0.809106	1.649253
C	2.784951	-6.887325	1.506295
C	2.962585	-5.741455	2.287327
C	1.806864	-6.868139	0.503039
C	2.188946	-4.598211	2.076945
C	1.022591	-5.743650	0.283651
C	1.176999	-4.560682	1.068478
O	0.427028	-3.516517	0.867941
C	-3.624919	7.844363	3.245533
C	-2.266593	8.327528	2.732003
C	-1.250768	7.208089	2.402888
O	-1.728124	6.012076	2.351529
O	-0.072578	7.542032	2.185327
C	-3.440572	4.867861	5.648162
C	-1.946769	4.695868	5.986473
O	-1.598815	4.366894	7.125177
C	-4.272967	3.673065	6.137196
C	-4.022867	2.346328	5.393915
C	-4.780205	1.201609	6.083128
C	-4.399625	2.424963	3.907302
N	-1.067647	4.930927	4.979379
C	0.379715	4.851942	5.188258
C	1.157125	4.615447	3.886692
C	2.660139	4.627040	4.200070
C	0.745258	3.306943	3.199569
C	-3.899577	5.431501	-0.439644
C	-2.546428	5.042621	-0.942958
C	-2.126196	4.575812	-2.169185
N	-1.407742	5.112527	-0.171485
C	-0.375105	4.695888	-0.944325
N	-0.763233	4.354617	-2.167575
C	-5.154655	6.003711	-5.355912
C	-4.982111	4.538407	-5.018071
C	-3.825388	3.847985	-5.408571
C	-5.946927	3.848518	-4.273921
C	-3.616217	2.519985	-5.038509
C	-5.755749	2.511492	-3.916989
C	-4.585510	1.848732	-4.288020
O	-0.341690	2.087885	-4.528622
O	0.932451	-1.254676	1.862033
H	3.239510	0.333311	-5.265396
H	1.879064	1.188422	-6.008387
H	1.424933	-3.355168	-3.254534
H	0.120416	-2.448547	-2.487815
H	1.052711	-5.604314	-4.186795
H	-2.118588	-3.487075	-2.223429
H	-0.274773	-7.690801	-4.098529
H	-3.455021	-5.570598	-2.126141
H	-2.543742	-7.683350	-3.073611
H	0.295568	-3.027276	-5.499624
H	-3.790577	-4.530625	-7.285739
H	-4.029829	-4.451389	-5.531800
H	-4.160598	-2.107917	-7.504831
H	-5.392364	-2.554148	-6.316528
H	-3.478356	-0.631628	-5.731474
H	-4.041748	-1.732447	-4.473481
H	-1.643108	-4.342066	-5.618686
H	1.938339	2.118325	-3.629374
H	1.479870	3.262624	-2.400482
H	3.762848	3.457307	-1.542430
H	5.911837	-2.114958	-4.013831
H	4.242747	-1.629949	-3.834535
H	2.937522	-2.596384	-1.540291
H	8.001467	-2.875712	-2.574516
H	9.392866	-4.346411	-1.146117
H	5.936498	-5.495721	1.178015
H	8.383928	-5.635714	0.712906
H	6.295893	-0.273592	-2.051953
H	2.601960	9.002093	-0.251835
H	5.798321	4.823424	-0.451564
H	7.738981	3.462532	0.312123
H	8.042226	5.188415	0.563811
H	7.607153	4.155320	1.937360
H	5.347575	2.543294	0.416067
H	4.002989	3.609006	0.842826
H	5.201491	3.167235	2.066618
H	5.530815	5.722003	2.455875
H	-2.273038	-5.783150	3.122525
H	-3.259918	-4.119686	6.967428
H	-1.067026	-3.716301	2.520256
H	-2.049712	-2.037806	6.355271
H	-0.388128	-1.532379	3.298138
H	1.275987	-6.554422	8.012373
H	3.249391	-7.543028	5.882441
H	3.687540	-6.764579	7.410002
H	2.918358	-8.356207	7.420097
H	1.771332	-5.504364	5.184122
H	0.478503	-4.985374	6.243275
H	2.193279	-4.136939	7.916507
H	3.479831	-4.552800	6.774894
H	2.281197	-3.331230	6.345584
H	0.718268	-7.890248	5.306951
H	-8.490182	-3.206756	-3.398258
H	-6.162489	-3.457086	-2.523598
H	-6.437319	-1.803342	-3.074126
H	-6.456736	-2.174192	-1.342815
H	-8.481465	-3.454889	-0.353027
H	-9.827961	-3.884732	-1.395293
H	-8.382104	-5.637636	-2.528767
H	-7.073727	-5.261458	-1.399481
H	-8.588234	-5.931035	-0.796094
H	-8.836178	-1.039784	-1.254072
H	-5.627179	-4.330980	4.761343
H	-7.394912	-4.292955	4.966553
H	-8.756433	-2.626308	3.750191
H	-4.473118	-2.547414	3.435661
H	-8.925202	-0.959550	1.926126
H	-4.636211	-0.890278	1.605994
H	-6.856911	-0.070635	0.855088
H	1.658290	-7.748708	-0.120233
H	3.716346	-5.733157	3.073529
H	0.264305	-5.733208	-0.493639
H	2.330647	-3.709770	2.687091
H	0.776439	-2.216835	1.533439
H	-2.395005	8.908702	1.807783
H	-1.790487	9.012796	3.443259
H	-4.053819	7.107832	2.562440
H	-4.047142	3.533891	7.200636
H	-5.341146	3.925406	6.061920
H	-2.949345	2.122767	5.462080
H	-4.589962	0.243309	5.588375
H	-4.483337	1.105968	7.133858
H	-5.863998	1.377851	6.057076
H	-4.250302	1.459542	3.413315
H	-3.800527	3.165354	3.368955
H	-5.457519	2.695820	3.788159
H	-3.775733	5.771013	6.174364
H	0.932910	5.448990	3.207191
H	3.254429	4.451178	3.296938
H	2.921240	3.834944	4.913647
H	2.974756	5.584255	4.631866
H	1.313899	3.159275	2.273906
H	0.929103	2.440406	3.846893
H	-0.316455	3.317241	2.940312
H	0.564793	4.042673	5.904224
H	-4.657138	5.190254	-1.190715
H	-4.152034	4.902880	0.485966
H	-2.729431	4.375849	-3.041993
H	0.636861	4.643846	-0.568859
H	-5.059704	6.142265	-6.442150
H	-6.173155	6.318078	-5.096559
H	-6.851153	4.367292	-3.962447
H	-3.058606	4.365711	-5.979950
H	-6.512380	1.996488	-3.330336
H	-2.672305	2.040102	-5.277456
H	-4.403673	0.828063	-3.968939
H	10.545922	1.393924	-2.182156
H	10.446094	2.596706	-0.888191
H	9.051003	-0.149370	-0.811527
H	9.089008	1.003936	0.505854
H	11.523033	-0.436026	-0.648898
H	12.733267	0.387169	1.381143
H	12.176085	1.740358	0.389038
H	11.301929	1.308360	1.865075
H	11.462120	-1.806119	1.439622
H	9.958138	-2.000499	0.520311
H	9.990525	-0.971133	1.955805
H	-0.485004	2.726771	-3.807454
H	6.217406	6.709923	1.152020
H	2.272242	7.451833	-1.024209
H	1.903189	7.662384	0.697477
H	-4.330495	8.678959	3.351772
H	-10.107063	-1.632320	-2.335646
H	3.045487	0.320037	-7.045437
H	6.322921	0.133536	-3.757488
H	3.730999	3.740742	-3.262559
H	3.393384	-7.772139	1.672426
H	0.444491	-8.622063	6.897723
H	-6.363843	-3.148678	5.832212
H	0.740609	5.777552	5.662345
H	-3.382484	-6.025257	5.348623
H	-1.379455	5.406711	0.835712
H	-0.677258	1.236959	-4.197352
H	-0.510847	-7.216454	6.379525
H	-1.397714	5.260382	4.065675
H	1.313575	-0.684109	-4.017898
H	3.374722	6.072766	1.486001
H	3.638780	0.308213	-2.675587
H	8.985198	2.110125	-1.757156
H	3.601285	-4.189433	0.278740
C	0.533077	0.596977	0.325533
C	1.458669	-0.557569	0.749396
H	2.432609	-0.110602	1.000321
H	0.369833	1.208088	1.217504
C	-0.832784	0.244137	-0.247249
C	-1.349769	-1.058045	-0.204741
C	-1.653464	1.278842	-0.719694
C	-2.667927	-1.301194	-0.601290
H	-0.753926	-1.892029	0.142944
C	-2.960221	1.027276	-1.133479
H	-1.272542	2.290195	-0.787443
C	-3.478837	-0.266050	-1.065389
H	-3.062339	-2.310949	-0.524303
H	-3.564072	1.849713	-1.501860
H	-4.502523	-0.469535	-1.369972
H	1.610498	-1.243299	-0.087063
H	-3.962231	6.504341	-0.220449
H	-3.529256	7.363923	4.222346
H	-3.578757	5.050796	4.579054
H	-8.721697	-0.747375	-2.995639
H	-1.641199	-3.392689	-7.119684
C	-4.141146	6.926022	-4.651500
H	-3.113102	6.667473	-4.920808
H	-4.310438	7.972710	-4.928374
H	-4.219873	6.841869	-3.563855