279			
			
C	3.657284	0.116461	-5.569681
C	2.827076	-1.177423	-5.539969
O	2.627911	-1.828547	-6.571852
N	2.346550	-1.548445	-4.321260
C	1.534173	-2.753811	-4.182833
C	0.054782	-2.437434	-4.485804
O	-0.479399	-1.404112	-4.052461
C	1.721262	-3.371564	-2.770983
C	1.174170	-4.777210	-2.645002
C	1.857881	-5.859796	-3.220163
C	-0.023961	-5.030803	-1.964936
C	1.344145	-7.155161	-3.149759
C	-0.544795	-6.325203	-1.900187
C	0.130781	-7.389907	-2.498557
N	-0.665574	-3.310614	-5.234774
C	-0.209552	-4.560890	-5.878457
C	-1.518169	-5.216776	-6.336743
C	-2.420398	-4.016473	-6.660192
C	-2.066396	-3.004722	-5.562471
C	3.549383	3.336188	-2.297745
C	4.904349	2.633539	-2.077997
O	5.914729	3.327922	-1.890201
C	2.348965	2.580300	-2.904602
C	1.710069	1.306072	-2.240534
O	1.250834	1.742184	-0.913989
O	2.432025	0.208641	-2.231826
N	4.926221	1.278937	-2.090205
C	6.176569	0.548565	-1.888412
C	6.081898	-0.933736	-2.320987
C	5.853069	-1.911816	-1.201583
C	4.662578	-2.193530	-0.570052
C	6.852816	-2.714121	-0.545064
C	6.185633	-3.471073	0.464372
C	8.241457	-2.879096	-0.702992
N	4.856454	-3.128253	0.423568
C	6.862349	-4.378942	1.287334
C	8.918617	-3.772355	0.119693
C	8.233446	-4.517308	1.103562
C	9.624449	3.506628	0.121667
C	9.435026	2.181914	0.870131
C	10.693357	1.623250	1.561722
C	11.231611	2.563883	2.650274
C	10.416425	0.227431	2.139600
C	1.279050	8.261705	-0.881263
C	2.626004	8.275674	-0.178456
O	3.464121	9.150586	-0.386109
N	2.841979	7.234632	0.684730
C	4.115987	7.031157	1.358626
C	4.909223	5.800192	0.880027
C	6.342052	5.858068	1.426962
C	4.239703	4.476867	1.273620
C	-2.868649	-4.876287	5.185112
C	-2.105525	-4.912679	4.009432
C	-3.026628	-3.644199	5.831847
C	-1.503348	-3.765544	3.484403
C	-2.433482	-2.488533	5.324823
C	-1.658055	-2.536918	4.150551
O	-1.101433	-1.372689	3.743259
C	0.539535	-6.576458	7.394877
C	1.268265	-5.267487	7.737809
C	0.995239	-4.202412	6.657552
C	2.768713	-5.526791	7.942062
C	1.526920	-2.800531	6.973847
C	-7.962554	-3.393652	-3.571001
C	-7.107012	-4.470340	-2.886262
C	-7.926122	-5.204095	-1.805263
C	-5.817002	-3.855377	-2.323185
C	-7.234121	-6.427259	-1.194255
C	-6.572848	-4.204920	4.130726
C	-6.925831	-3.236712	3.028179
C	-8.196479	-3.240632	2.436563
C	-5.990065	-2.291839	2.587217
C	-8.528810	-2.320894	1.440097
C	-6.317912	-1.368243	1.594250
C	-7.589522	-1.378064	1.016999
C	3.596206	-5.943123	2.959994
C	3.398736	-4.604929	3.319468
C	2.829456	-6.463018	1.906408
C	2.470647	-3.802299	2.652634
C	1.895106	-5.684521	1.236625
C	1.664036	-4.314083	1.583518
O	0.770818	-3.596083	0.969844
C	-5.398200	7.377754	1.289979
C	-3.979034	7.833063	1.654462
C	-2.867434	7.016880	0.967273
O	-3.058069	5.729817	0.981218
O	-1.891546	7.596156	0.478791
C	-5.202808	4.796788	4.112499
C	-3.821258	5.012661	4.762499
O	-3.704020	5.092439	5.987469
C	-6.150495	3.995047	5.012896
C	-5.737592	2.535917	5.285784
C	-6.682107	1.905282	6.319622
C	-5.688548	1.682932	4.010459
N	-2.775162	5.124220	3.897840
C	-1.419577	5.463201	4.334798
C	-0.339675	4.643207	3.608845
C	1.040761	5.256617	3.881023
C	-0.387925	3.161797	4.000361
C	-4.525674	4.540087	-1.975634
C	-3.127419	4.040277	-1.972252
C	-2.514869	3.147636	-2.806583
N	-2.189361	4.427266	-1.032847
C	-1.058013	3.769678	-1.287326
N	-1.223780	2.997510	-2.364220
C	-4.852351	4.276387	-7.064452
C	-4.463943	2.942294	-6.452542
C	-3.178867	2.413410	-6.649335
C	-5.342996	2.246886	-5.611646
C	-2.771649	1.247302	-5.999295
C	-4.943536	1.075012	-4.963278
C	-3.652195	0.577773	-5.143792
O	0.508365	1.151254	-3.086848
O	0.864673	-1.079775	1.530111
H	3.917679	0.484860	-4.577683
H	3.081929	0.884035	-6.097929
H	2.798924	-3.375489	-2.576503
H	1.267945	-2.728070	-2.013319
H	2.806546	-5.683140	-3.722486
H	-0.516682	-4.221241	-1.437007
H	1.893997	-7.979872	-3.596062
H	-1.471038	-6.502100	-1.360267
H	-0.271541	-8.397908	-2.438050
H	1.903129	-3.456813	-4.933816
H	-1.367338	-5.890588	-7.185244
H	-1.943995	-5.800079	-5.512639
H	-2.161194	-3.607052	-7.643475
H	-3.485983	-4.263206	-6.670307
H	-2.160441	-1.964840	-5.882933
H	-2.697217	-3.132146	-4.672386
H	0.342272	-5.188093	-5.179295
H	2.596259	2.254656	-3.919117
H	1.549731	3.321104	-3.019271
H	3.260513	3.740098	-1.320578
H	7.017974	-1.201599	-2.825592
H	5.296975	-1.032624	-3.079029
H	3.685028	-1.771096	-0.750750
H	8.779904	-2.315096	-1.461264
H	9.991526	-3.905307	0.002508
H	6.321685	-4.952982	2.033934
H	8.788040	-5.212643	1.728909
H	6.493770	0.605021	-0.837840
H	1.051060	9.277683	-1.206399
H	4.964659	5.839905	-0.215170
H	6.924652	5.004806	1.067216
H	6.854502	6.773614	1.110180
H	6.348546	5.832050	2.524929
H	4.778230	3.634265	0.832099
H	3.202858	4.416117	0.924517
H	4.231881	4.347000	2.363620
H	3.948092	6.958988	2.443789
H	-1.961405	-5.855546	3.487656
H	-3.613760	-3.579471	6.745404
H	-0.905594	-3.812432	2.574469
H	-2.546927	-1.532814	5.827428
H	-0.557532	-1.444190	2.931896
H	0.858117	-4.893178	8.690211
H	3.229672	-5.869249	7.007603
H	3.300010	-4.625049	8.262548
H	2.939054	-6.299531	8.702061
H	1.420132	-4.543454	5.704373
H	-0.087646	-4.136384	6.500820
H	1.137266	-2.431599	7.931586
H	2.620823	-2.773762	7.028362
H	1.219899	-2.094131	6.196929
H	0.928873	-7.000775	6.461731
H	-6.826804	-5.212012	-3.651137
H	-5.147263	-4.610770	-1.902800
H	-5.261216	-3.324648	-3.104371
H	-6.045725	-3.136693	-1.527382
H	-8.176448	-4.491194	-1.007548
H	-8.882089	-5.519955	-2.246653
H	-6.958068	-7.154521	-1.967627
H	-6.322663	-6.152758	-0.655652
H	-7.892702	-6.935122	-0.481443
H	-8.274843	-2.629027	-2.849282
H	-5.505922	-4.442867	4.129744
H	-7.138431	-5.138462	4.040156
H	-8.933015	-3.973067	2.760781
H	-4.994406	-2.281770	3.022952
H	-9.521390	-2.339845	0.996592
H	-5.570558	-0.651094	1.272732
H	-7.846074	-0.657336	0.245287
H	2.968240	-7.500644	1.603888
H	3.980829	-4.172520	4.132328
H	1.307653	-6.102592	0.424808
H	2.324080	-2.765512	2.943800
H	0.829084	-2.069846	1.295651
H	-3.822595	8.888117	1.410635
H	-3.834353	7.729231	2.738820
H	-5.596446	7.529647	0.222275
H	-6.215783	4.521330	5.971357
H	-7.156006	4.005386	4.566972
H	-4.731855	2.560560	5.724520
H	-6.379600	0.880321	6.560953
H	-6.693527	2.482021	7.251341
H	-7.711220	1.864376	5.938584
H	-5.413098	0.648263	4.238461
H	-4.954439	2.060740	3.292263
H	-6.666860	1.659996	3.513072
H	-5.630567	5.793504	3.943501
H	-0.542406	4.729217	2.531225
H	1.829193	4.715380	3.348777
H	1.281289	5.222077	4.951098
H	1.080276	6.305431	3.563968
H	0.332227	2.570269	3.425696
H	-0.148916	3.033912	5.063375
H	-1.381373	2.736694	3.831608
H	-1.382868	5.296614	5.414495
H	-5.123777	3.969217	-2.690698
H	-4.978286	4.447052	-0.983448
H	-2.901274	2.597872	-3.646785
H	-0.149183	3.797089	-0.709592
H	-4.575285	4.293746	-8.126655
H	-5.940875	4.398901	-7.021056
H	-6.346012	2.636381	-5.450644
H	-2.481092	2.935248	-7.300529
H	-5.634436	0.563477	-4.298843
H	-1.761049	0.870789	-6.127848
H	-3.309918	-0.295414	-4.598283
H	10.458277	3.443275	-0.588750
H	9.827445	4.342620	0.799751
H	9.067661	1.429394	0.161307
H	8.638410	2.296629	1.618799
H	11.475105	1.520592	0.791971
H	12.124910	2.144445	3.128331
H	11.500090	3.546024	2.248268
H	10.479624	2.719713	3.434155
H	11.318015	-0.206806	2.587902
H	10.054985	-0.462744	1.370222
H	9.648225	0.274659	2.921082
H	-0.541373	2.254244	-2.690795
H	4.688492	7.942495	1.170384
H	1.351724	7.630449	-1.774848
H	0.449915	7.886731	-0.271083
H	-6.155651	7.938826	1.850186
H	-8.868927	-3.822361	-4.014597
H	4.563477	-0.074732	-6.150152
H	6.946911	1.071668	-2.465942
H	3.776042	4.202812	-2.927310
H	4.318472	-6.562310	3.485589
H	0.667033	-7.328038	8.184084
H	-6.803575	-3.779388	5.116096
H	-1.235471	6.533745	4.158681
H	-3.323243	-5.778744	5.583302
H	-2.427896	5.048985	-0.141798
H	0.322191	0.205536	-3.250244
H	-0.532675	-6.405373	7.253087
H	-2.959187	5.173573	2.892033
H	2.426378	-0.887668	-3.514631
H	2.100773	6.564098	0.821661
H	4.018416	0.766545	-2.087197
H	8.722559	3.746423	-0.450619
H	4.134386	-3.473393	1.050830
C	0.651337	0.847360	0.068962
C	1.466934	-0.411228	0.428276
H	2.491438	-0.092051	0.665653
H	0.661891	1.472630	0.970563
C	-0.816983	0.509839	-0.190907
C	-1.209102	-0.499029	-1.078809
C	-1.821027	1.212867	0.486148
C	-2.555826	-0.763988	-1.319041
H	-0.461352	-1.078514	-1.603967
C	-3.173586	0.958134	0.248869
H	-1.542142	1.975922	1.208089
C	-3.545780	-0.027818	-0.665529
H	-2.826568	-1.547454	-2.021339
H	-3.930544	1.532543	0.776954
H	-4.595675	-0.227173	-0.863859
H	1.530021	-1.075906	-0.434286
H	-4.580305	5.600122	-2.251252
H	-5.522649	6.314524	1.500460
H	-5.089257	4.342769	3.122965
H	-7.405463	-2.887787	-4.367276
H	0.443659	-4.322691	-6.728539
C	-4.168130	5.453156	-6.342571
H	-3.078971	5.363439	-6.391962
H	-4.450346	6.411761	-6.791846
H	-4.446825	5.476467	-5.284756