279			
			
C	3.207345	-0.532815	-5.949521
C	2.135185	-1.627738	-5.918043
O	1.711481	-2.156323	-6.945956
N	1.661067	-1.977326	-4.677617
C	0.469791	-2.814822	-4.546766
C	-0.771288	-1.978575	-4.935812
O	-0.844084	-0.780294	-4.605642
C	0.383315	-3.349186	-3.093257
C	-0.678300	-4.404915	-2.868938
C	-0.501778	-5.707681	-3.360215
C	-1.844602	-4.113618	-2.151587
C	-1.477481	-6.686720	-3.167098
C	-2.823577	-5.090202	-1.959657
C	-2.648078	-6.376379	-2.471188
N	-1.775762	-2.565228	-5.626478
C	-1.820763	-3.937129	-6.182322
C	-3.265525	-4.066827	-6.681423
C	-3.622711	-2.634972	-7.107070
C	-2.950475	-1.772827	-6.032235
C	4.226165	2.324641	-2.502668
C	5.094872	1.154513	-2.988383
O	5.617018	1.187745	-4.104088
C	2.950314	2.495106	-3.351195
C	2.062439	1.266143	-3.399412
O	1.242385	1.335958	-0.093606
O	2.325822	0.202279	-2.856024
N	5.272898	0.118930	-2.109761
C	5.994863	-1.097624	-2.486000
C	5.126636	-2.370459	-2.603493
C	4.915169	-3.115685	-1.317713
C	3.738156	-3.293605	-0.625654
C	5.920356	-3.845094	-0.584497
C	5.269639	-4.438251	0.537964
C	7.295623	-4.076590	-0.765327
N	3.946949	-4.079957	0.483399
C	5.952708	-5.239832	1.459409
C	7.979106	-4.868512	0.152187
C	7.312349	-5.443866	1.254913
C	10.260136	0.638063	-0.622341
C	9.768971	-0.321916	0.466210
C	10.880174	-1.003465	1.288597
C	11.750218	0.004077	2.053592
C	10.279428	-2.038331	2.249423
C	3.520542	7.554716	-0.613232
C	4.877945	7.029955	-0.177045
O	5.932557	7.428391	-0.667147
N	4.842780	6.052553	0.783592
C	6.049983	5.423175	1.294125
C	6.328328	4.009298	0.747176
C	7.714753	3.543033	1.212473
C	5.243815	3.005074	1.155436
C	-3.693156	-4.389066	5.036542
C	-2.955525	-4.412780	3.847711
C	-3.613387	-3.253973	5.851544
C	-2.144204	-3.341624	3.472166
C	-2.806305	-2.176135	5.494414
C	-2.051376	-2.210126	4.306006
O	-1.273489	-1.144715	4.033576
C	-0.749331	-7.124423	6.836829
C	0.290852	-6.079064	7.265051
C	0.113732	-4.782522	6.450811
C	1.709198	-6.658405	7.152059
C	0.983951	-3.604583	6.901114
C	-8.763747	-0.884018	-3.137767
C	-8.199688	-2.307977	-3.033875
C	-9.120719	-3.188518	-2.166325
C	-6.758232	-2.274878	-2.505052
C	-8.740002	-4.671523	-2.119770
C	-7.127383	-2.650674	4.352701
C	-7.681374	-1.816826	3.223506
C	-9.060270	-1.616692	3.077591
C	-6.821158	-1.194218	2.309002
C	-9.568190	-0.806688	2.060489
C	-7.323588	-0.381754	1.293172
C	-8.699568	-0.179685	1.165863
C	2.049467	-7.000761	2.193126
C	2.084283	-5.791401	2.893324
C	1.306302	-7.054796	1.004556
C	1.413537	-4.658375	2.423947
C	0.627702	-5.943316	0.523540
C	0.652524	-4.688752	1.210096
O	0.022778	-3.651723	0.740341
C	-2.972501	8.358341	2.084156
C	-1.591152	8.877539	2.504804
C	-0.429721	8.061172	1.889037
O	-0.611557	6.782117	1.914263
O	0.559232	8.657490	1.442893
C	-3.309459	5.607140	4.726790
C	-1.893270	5.252118	5.237003
O	-1.717962	4.856552	6.394169
C	-4.414903	4.943309	5.553859
C	-4.518219	3.411019	5.422262
C	-5.511829	2.857318	6.453900
C	-4.910603	2.962807	4.006730
N	-0.892314	5.422589	4.338074
C	0.515656	5.195625	4.652395
C	1.067803	3.862079	4.108956
C	2.582180	3.791783	4.349632
C	0.351899	2.650145	4.716362
C	-3.152010	5.657935	-1.402026
C	-1.833269	4.964354	-1.220446
C	-1.250134	3.908408	-1.889729
N	-0.927755	5.310255	-0.238919
C	0.124040	4.472781	-0.347479
N	-0.022063	3.601772	-1.336596
C	-3.889229	5.896991	-6.448975
C	-3.688231	4.448864	-6.049283
C	-2.608125	3.718681	-6.565369
C	-4.475976	3.855565	-5.054625
C	-2.292740	2.455391	-6.067249
C	-4.168032	2.587313	-4.556604
C	-3.064059	1.889810	-5.049132
O	0.971909	1.448456	-4.151610
O	0.393939	-1.518211	1.999997
H	3.855646	-0.517760	-5.074985
H	2.706653	0.437893	-6.021926
H	1.368814	-3.765925	-2.858427
H	0.219692	-2.512195	-2.408287
H	0.416321	-5.959305	-3.886907
H	-1.972093	-3.127803	-1.716557
H	-1.317839	-7.692233	-3.547842
H	-3.715067	-4.847107	-1.388640
H	-3.406608	-7.137919	-2.310718
H	0.582651	-3.645755	-5.246719
H	-3.357133	-4.798848	-7.488928
H	-3.911307	-4.389620	-5.857332
H	-3.188323	-2.415180	-8.089136
H	-4.699614	-2.455878	-7.168447
H	-2.637645	-0.789048	-6.386216
H	-3.610072	-1.616439	-5.169249
H	-1.576313	-4.679494	-5.423863
H	3.212760	2.744946	-4.385501
H	2.335477	3.316108	-2.965927
H	3.939399	2.195048	-1.455708
H	5.632771	-3.036166	-3.317676
H	4.165503	-2.110769	-3.057148
H	2.745320	-2.923798	-0.837793
H	7.821032	-3.649965	-1.616298
H	9.041095	-5.055219	0.015320
H	5.427001	-5.692378	2.294618
H	7.870593	-6.061234	1.953417
H	6.801610	-1.271948	-1.764984
H	3.670239	8.501627	-1.132331
H	6.339221	4.087176	-0.348430
H	7.948281	2.548311	0.819482
H	8.501177	4.230318	0.880730
H	7.761374	3.484157	2.307559
H	5.447497	2.014967	0.734634
H	4.250933	3.308179	0.809237
H	5.198513	2.897672	2.246474
H	5.994045	5.382086	2.390877
H	-2.999888	-5.283046	3.197662
H	-4.180167	-3.208782	6.779323
H	-1.582897	-3.385772	2.542300
H	-2.730968	-1.294961	6.124350
H	-0.688025	-1.287738	3.235712
H	0.109505	-5.836907	8.325138
H	1.943723	-6.897092	6.107718
H	2.468279	-5.956741	7.511892
H	1.808357	-7.581897	7.735928
H	0.307928	-4.995886	5.391907
H	-0.938197	-4.478966	6.502959
H	0.820061	-3.369838	7.960831
H	2.053193	-3.802225	6.767584
H	0.741401	-2.708813	6.321612
H	-0.606571	-7.401575	5.785024
H	-8.182453	-2.738673	-4.047649
H	-6.285196	-3.260975	-2.523062
H	-6.135730	-1.603860	-3.106540
H	-6.734949	-1.914143	-1.470840
H	-9.134085	-2.780596	-1.146569
H	-10.147945	-3.097161	-2.545519
H	-8.701850	-5.103237	-3.127347
H	-7.761899	-4.827297	-1.655909
H	-9.470320	-5.246111	-1.540179
H	-8.800022	-0.409581	-2.149863
H	-6.229170	-3.198407	4.055863
H	-7.867219	-3.370043	4.718326
H	-9.743478	-2.100779	3.771983
H	-5.748641	-1.346255	2.395838
H	-10.641820	-0.663914	1.968556
H	-6.635146	0.098339	0.604311
H	-9.089359	0.465445	0.383586
H	1.262104	-7.986471	0.441537
H	2.649272	-5.720670	3.822063
H	0.054488	-5.998551	-0.396751
H	1.447768	-3.724924	2.978743
H	0.219882	-2.408836	1.482360
H	-1.460414	9.931445	2.238456
H	-1.496835	8.807360	3.598209
H	-3.122458	8.478859	1.004370
H	-4.229988	5.188000	6.605380
H	-5.382270	5.390218	5.279888
H	-3.529675	2.998123	5.657487
H	-5.571155	1.764437	6.401993
H	-5.217852	3.130674	7.473293
H	-6.521947	3.251889	6.279357
H	-4.993225	1.871969	3.949955
H	-4.177103	3.271917	3.256258
H	-5.882978	3.383721	3.718148
H	-3.414096	6.698129	4.789849
H	0.892584	3.858108	3.023644
H	3.006277	2.874546	3.928024
H	2.808829	3.799174	5.423641
H	3.102978	4.644787	3.897050
H	0.732552	1.711588	4.299837
H	0.486500	2.620523	5.803898
H	-0.722684	2.687929	4.521561
H	0.627368	5.224216	5.741774
H	-3.691853	5.206288	-2.238347
H	-3.781786	5.575140	-0.508095
H	-1.639467	3.360462	-2.736227
H	0.966195	4.525886	0.327385
H	-3.777627	6.015146	-7.534558
H	-4.904434	6.223277	-6.194256
H	-5.320918	4.405741	-4.645584
H	-1.985346	4.163660	-7.338786
H	-4.770003	2.157103	-3.761054
H	-1.425682	1.919838	-6.442589
H	-2.772284	0.933402	-4.630118
H	10.968697	0.140135	-1.296571
H	10.760915	1.515316	-0.203757
H	9.156232	-1.105092	0.003482
H	9.099219	0.215727	1.151895
H	11.532312	-1.539144	0.580968
H	12.526663	-0.508315	2.633447
H	12.250219	0.710338	1.384467
H	11.142339	0.586061	2.756995
H	11.062230	-2.571245	2.801894
H	9.675768	-2.777756	1.715475
H	9.627755	-1.552867	2.985414
H	0.747081	2.047831	-0.556570
H	6.872967	6.089154	1.021987
H	3.065430	6.847386	-1.316702
H	2.809551	7.700845	0.208437
H	-3.783377	8.895485	2.591251
H	-9.781412	-0.883254	-3.544944
H	3.805582	-0.672106	-6.851478
H	6.451916	-0.865790	-3.451118
H	4.828199	3.233417	-2.588115
H	2.579130	-7.875135	2.560769
H	-0.672911	-8.039636	7.437113
H	-6.837725	-2.017619	5.200172
H	1.084993	6.024944	4.218139
H	-4.312652	-5.234994	5.321655
H	-0.969078	6.013963	0.536207
H	0.427301	0.624964	-4.171657
H	-1.767770	-6.734076	6.935744
H	-1.057606	5.875235	3.428751
H	1.865912	-1.348658	-3.900023
H	3.948384	5.795997	1.174053
H	4.621463	0.058176	-1.338401
H	9.424827	0.996979	-1.231172
H	3.217131	-4.366471	1.133117
C	0.379473	0.657904	0.810512
C	1.119529	-0.649127	1.159695
H	2.077208	-0.369628	1.624632
H	0.253707	1.238595	1.740134
C	-1.005503	0.402339	0.242597
C	-2.137659	0.516266	1.056563
C	-1.176637	0.045246	-1.099579
C	-3.414351	0.298820	0.537571
H	-2.017121	0.770217	2.105669
C	-2.450798	-0.184095	-1.619769
H	-0.304066	-0.032990	-1.738628
C	-3.576822	-0.045855	-0.805094
H	-4.279799	0.414050	1.184379
H	-2.551609	-0.455286	-2.666300
H	-4.570781	-0.213390	-1.213316
H	1.352117	-1.147678	0.209456
H	-3.027840	6.727744	-1.613817
H	-3.062539	7.295402	2.310238
H	-3.389568	5.358554	3.663485
H	-8.142593	-0.254607	-3.784452
H	-1.101796	-4.022396	-7.007953
C	-2.856302	6.781300	-5.724325
H	-1.836953	6.484579	-5.988274
H	-2.980540	7.839390	-5.984415
H	-2.953955	6.682345	-4.639559