279			
			
C	3.016226	0.281909	-5.914357
C	2.082307	-0.932532	-5.911581
O	1.793107	-1.530009	-6.950014
N	1.580949	-1.303293	-4.691096
C	0.527789	-2.312674	-4.593282
C	-0.851519	-1.627858	-4.761598
O	-1.086278	-0.549092	-4.208381
C	0.613148	-3.014767	-3.213809
C	-0.324446	-4.192454	-3.066338
C	0.050634	-5.463025	-3.528937
C	-1.591658	-4.042105	-2.485685
C	-0.817993	-6.551736	-3.428391
C	-2.463188	-5.127719	-2.385925
C	-2.082456	-6.385358	-2.858971
N	-1.811723	-2.239973	-5.500797
C	-1.721845	-3.509485	-6.232808
C	-3.183357	-3.816220	-6.589136
C	-3.801172	-2.420380	-6.767057
C	-3.120693	-1.591387	-5.669423
C	3.923890	2.973086	-2.306372
C	5.133455	2.022014	-2.376787
O	6.278473	2.468100	-2.246664
C	2.507039	2.403553	-2.543496
C	2.083267	1.226467	-1.636755
O	1.708300	1.494880	-0.454630
O	2.157714	0.051220	-2.120718
N	4.887111	0.698501	-2.583224
C	5.965896	-0.281394	-2.587589
C	5.500458	-1.669610	-3.088848
C	5.272146	-2.680381	-2.001393
C	4.118579	-2.880338	-1.282032
C	6.242018	-3.606465	-1.473780
C	5.596258	-4.348682	-0.441828
C	7.588599	-3.888267	-1.765557
N	4.306720	-3.882068	-0.350322
C	6.254062	-5.351691	0.279051
C	8.247951	-4.878700	-1.045842
C	7.585060	-5.604497	-0.033674
C	10.140529	1.675746	-0.738137
C	9.771660	0.389246	0.009589
C	10.953995	-0.376726	0.633728
C	11.690317	0.447354	1.700689
C	10.481416	-1.717158	1.215997
C	2.862870	7.984112	-0.029223
C	4.260531	7.612308	0.433869
O	5.247212	8.279739	0.126005
N	4.348370	6.469745	1.182018
C	5.626455	5.947766	1.642735
C	6.113731	4.686518	0.901921
C	7.596465	4.435118	1.208041
C	5.274509	3.449645	1.245137
C	-3.137759	-4.881735	4.978124
C	-2.468377	-4.813387	3.754560
C	-2.888228	-3.894716	5.939410
C	-1.556557	-3.791657	3.489849
C	-1.981894	-2.867350	5.689258
C	-1.297082	-2.808737	4.462016
O	-0.403372	-1.812166	4.290092
C	0.083972	-7.476188	6.487625
C	1.219600	-6.524583	6.892407
C	1.064160	-5.177952	6.161449
C	2.587138	-7.178164	6.644117
C	2.036114	-4.073719	6.589434
C	-8.774710	-1.266144	-2.765772
C	-8.501272	-2.752980	-2.494320
C	-9.576548	-3.337802	-1.556575
C	-7.079524	-2.943805	-1.944874
C	-9.507433	-4.856764	-1.364708
C	-6.725418	-3.395829	4.526066
C	-7.183194	-2.400411	3.485586
C	-8.544669	-2.209149	3.216081
C	-6.252161	-1.621431	2.783418
C	-8.967502	-1.259977	2.283215
C	-6.667734	-0.670869	1.849986
C	-8.029476	-0.484796	1.598968
C	2.690865	-6.800958	1.780108
C	2.705724	-5.563468	2.428415
C	1.859748	-6.968635	0.666674
C	1.909605	-4.504099	1.979116
C	1.058527	-5.928411	0.208040
C	1.072536	-4.679723	0.859302
O	0.272545	-3.711168	0.376364
C	-3.570687	8.052736	2.917963
C	-2.214043	8.332656	2.265476
C	-1.271951	7.108779	2.147412
O	-1.841844	5.953423	2.190842
O	-0.057048	7.325995	1.993512
C	-3.584298	5.109067	5.367616
C	-2.122145	4.951016	5.829381
O	-1.863423	4.683783	7.007982
C	-4.409882	3.856504	5.702434
C	-4.005181	2.583407	4.932695
C	-4.791015	1.372679	5.457073
C	-4.180136	2.727609	3.413059
N	-1.177800	5.113808	4.869335
C	0.256334	5.026840	5.145906
C	1.057446	4.547026	3.925702
C	2.556743	4.604387	4.249653
C	0.641500	3.139019	3.479358
C	-3.656703	5.590981	-0.744034
C	-2.401865	4.861479	-1.085772
C	-1.999566	4.244466	-2.245396
N	-1.366225	4.675339	-0.195643
C	-0.403814	3.967743	-0.838810
N	-0.749510	3.683455	-2.088949
C	-4.595840	6.110962	-5.736025
C	-4.499462	4.640753	-5.389107
C	-3.319410	3.920339	-5.622438
C	-5.585967	3.967200	-4.816448
C	-3.209539	2.575825	-5.266954
C	-5.494345	2.615742	-4.478233
C	-4.304210	1.921109	-4.695211
O	-0.002217	2.112103	-4.565941
O	0.427722	-1.492031	1.762758
H	3.684302	0.307950	-5.050418
H	2.393203	1.183519	-5.881687
H	1.648833	-3.345706	-3.087636
H	0.412609	-2.269408	-2.438929
H	1.037777	-5.598475	-3.965055
H	-1.889479	-3.072995	-2.096597
H	-0.505056	-7.528438	-3.788901
H	-3.437267	-4.990374	-1.924340
H	-2.759825	-7.231071	-2.773652
H	0.700273	-3.025652	-5.401542
H	-3.269562	-4.449463	-7.477178
H	-3.661491	-4.338361	-5.752773
H	-3.542852	-2.018789	-7.753779
H	-4.891300	-2.413284	-6.678535
H	-2.990441	-0.540094	-5.933844
H	-3.677072	-1.626258	-4.723531
H	-1.276935	-4.293937	-5.618657
H	2.388252	2.083259	-3.579081
H	1.791653	3.214222	-2.389994
H	3.974025	3.435398	-1.315216
H	6.258924	-2.061561	-3.776855
H	4.590035	-1.552944	-3.686456
H	3.176235	-2.355618	-1.358261
H	8.108945	-3.336850	-2.544770
H	9.288754	-5.101573	-1.266222
H	5.736018	-5.911067	1.052456
H	8.124301	-6.374690	0.511646
H	6.405250	-0.375583	-1.585124
H	2.793803	9.073100	-0.067590
H	6.021116	4.877173	-0.174648
H	7.966120	3.581971	0.631102
H	8.209596	5.306159	0.949681
H	7.752913	4.218711	2.273249
H	5.613932	2.582885	0.670567
H	4.212170	3.593030	1.019908
H	5.357870	3.204959	2.312320
H	5.565386	5.740656	2.720741
H	-2.646911	-5.567025	2.991994
H	-3.406085	-3.924451	6.895132
H	-1.042943	-3.757705	2.535998
H	-1.783773	-2.096184	6.426881
H	-0.065361	-1.768619	3.354795
H	1.129725	-6.331798	7.973680
H	2.734598	-7.367319	5.573493
H	3.411705	-6.545152	6.986746
H	2.668551	-8.139447	7.165639
H	1.159119	-5.348523	5.080731
H	0.040673	-4.818694	6.314809
H	1.974299	-3.884635	7.668581
H	3.078034	-4.321418	6.357341
H	1.794534	-3.138567	6.074917
H	0.139055	-7.710004	5.417573
H	-8.571001	-3.289036	-3.454239
H	-6.823151	-4.000450	-1.819720
H	-6.335491	-2.505459	-2.618646
H	-6.972472	-2.456029	-0.969009
H	-9.500485	-2.842547	-0.578733
H	-10.566322	-3.076389	-1.956545
H	-9.566590	-5.381205	-2.326330
H	-8.577704	-5.163856	-0.876327
H	-10.335517	-5.212475	-0.741894
H	-8.711431	-0.685058	-1.838087
H	-5.765224	-3.845635	4.258940
H	-7.458685	-4.197317	4.663335
H	-9.281727	-2.809190	3.745807
H	-5.190264	-1.758856	2.969583
H	-10.029493	-1.124189	2.094186
H	-5.925593	-0.083096	1.318573
H	-8.354564	0.260790	0.878711
H	1.838172	-7.922796	0.145985
H	3.344065	-5.409779	3.294484
H	0.414040	-6.051343	-0.655607
H	1.923350	-3.545208	2.488126
H	0.344375	-2.848973	0.892545
H	-2.363458	8.708837	1.242683
H	-1.669541	9.122594	2.794901
H	-4.076958	7.231770	2.405684
H	-4.303108	3.669615	6.777541
H	-5.473947	4.063962	5.514488
H	-2.940653	2.400395	5.134643
H	-4.483948	0.449701	4.953494
H	-4.638662	1.235021	6.533826
H	-5.867997	1.498467	5.284745
H	-3.890873	1.804858	2.898118
H	-3.570785	3.536453	2.999753
H	-5.229211	2.932382	3.160184
H	-3.995916	5.965171	5.916103
H	0.852188	5.249999	3.106753
H	3.156392	4.266297	3.397692
H	2.804587	3.953087	5.098280
H	2.874194	5.622183	4.504595
H	1.194558	2.832016	2.584387
H	0.837135	2.400548	4.267949
H	-0.425164	3.102725	3.241652
H	0.386896	4.349097	5.997426
H	-4.376607	5.489676	-1.561591
H	-4.115590	5.198556	0.169916
H	-2.543099	4.163983	-3.173328
H	0.507595	3.636748	-0.361296
H	-4.428416	6.237572	-6.815562
H	-5.620874	6.454723	-5.549432
H	-6.509265	4.510681	-4.626371
H	-2.455918	4.422125	-6.051999
H	-6.345891	2.113593	-4.025744
H	-2.248889	2.078261	-5.368923
H	-4.213748	0.881602	-4.396834
H	10.916559	1.486472	-1.490885
H	10.514183	2.454093	-0.064799
H	9.252971	-0.285287	-0.683431
H	9.041883	0.622893	0.797674
H	11.670063	-0.593828	-0.175163
H	12.525093	-0.118789	2.130745
H	12.096162	1.378429	1.292927
H	11.012019	0.712132	2.521460
H	11.321828	-2.303049	1.606979
H	9.965224	-2.323734	0.464319
H	9.778772	-1.555442	2.042612
H	-0.163234	2.643348	-3.757940
H	6.341019	6.761329	1.495522
H	2.725553	7.610267	-1.050640
H	2.048192	7.592950	0.589058
H	-4.218682	8.938736	2.891021
H	-9.773811	-1.111633	-3.189499
H	3.591973	0.270897	-6.840486
H	6.761025	0.115005	-3.228595
H	4.122295	3.774728	-3.025257
H	3.313325	-7.616949	2.134658
H	0.135056	-8.423089	7.039020
H	-6.585295	-2.908945	5.499367
H	0.636557	6.010851	5.459901
H	-3.839163	-5.685762	5.181291
H	-1.358931	5.047357	0.776714
H	-0.254672	1.209390	-4.308699
H	-0.896507	-7.024751	6.671867
H	-1.458768	5.367380	3.913942
H	1.723606	-0.695770	-3.877505
H	3.494126	5.996369	1.436647
H	3.928622	0.348111	-2.527698
H	9.263595	2.073480	-1.259117
H	3.607530	-4.205312	0.304652
C	-0.116897	-0.266133	1.263297
C	1.240478	-0.272425	0.716934
H	2.051476	0.069863	1.338316
H	-0.271976	0.460907	2.069444
C	-1.336679	-0.372548	0.383004
C	-1.526149	0.514470	-0.681845
C	-2.331260	-1.313357	0.678622
C	-2.696505	0.463771	-1.440095
H	-0.765066	1.248362	-0.917296
C	-3.499924	-1.366485	-0.082798
H	-2.192925	-2.003509	1.503383
C	-3.685975	-0.474229	-1.142687
H	-2.823538	1.161711	-2.259543
H	-4.266212	-2.098903	0.158235
H	-4.600779	-0.509141	-1.729519
H	1.449771	-0.816681	-0.190750
H	-3.480904	6.660316	-0.572575
H	-3.450847	7.760417	3.965494
H	-3.630240	5.349762	4.302501
H	-8.044161	-0.848108	-3.466678
H	-1.106620	-3.385606	-7.135059
C	-3.612762	7.027520	-4.982677
H	-2.574249	6.740338	-5.170928
H	-3.738024	8.069394	-5.297621
H	-3.771850	6.974123	-3.901628