279			
			
C	3.647921	0.062999	-5.617621
C	2.852769	-1.252191	-5.599129
O	2.684286	-1.917466	-6.624460
N	2.360301	-1.624578	-4.382894
C	1.509430	-2.797845	-4.234927
C	0.046366	-2.440867	-4.578213
O	-0.459995	-1.382444	-4.169878
C	1.630145	-3.355016	-2.791851
C	0.896879	-4.659954	-2.568047
C	1.432478	-5.869665	-3.035271
C	-0.328775	-4.689709	-1.890474
C	0.748460	-7.073904	-2.861743
C	-1.018779	-5.891415	-1.721555
C	-0.488033	-7.085664	-2.212057
N	-0.690195	-3.304499	-5.317459
C	-0.262571	-4.577673	-5.930062
C	-1.584140	-5.210160	-6.385024
C	-2.453895	-3.994283	-6.738949
C	-2.082499	-2.969433	-5.659247
C	3.592427	3.260923	-2.323073
C	4.951143	2.545756	-2.196842
O	5.984415	3.225054	-2.135240
C	2.376752	2.632390	-3.039508
C	1.686756	1.316269	-2.585714
O	0.962411	1.831897	-1.054663
O	2.384878	0.265737	-2.378733
N	4.951249	1.194078	-2.105455
C	6.197569	0.447381	-1.952001
C	6.046190	-1.044690	-2.332283
C	5.843063	-1.981921	-1.174807
C	4.660602	-2.308240	-0.549346
C	6.875381	-2.702320	-0.474461
C	6.236120	-3.456082	0.554514
C	8.272459	-2.797661	-0.610864
N	4.890915	-3.193441	0.480147
C	6.949648	-4.292971	1.420637
C	8.985603	-3.620909	0.253757
C	8.328614	-4.362958	1.258943
C	9.686147	3.360853	0.052980
C	9.469557	2.062896	0.839423
C	10.719519	1.499890	1.543254
C	11.279943	2.461464	2.602275
C	10.419668	0.128087	2.165083
C	1.376390	8.196477	-0.856431
C	2.752582	8.169776	-0.211990
O	3.636751	8.969547	-0.508605
N	2.939121	7.169886	0.706130
C	4.218413	6.925433	1.354206
C	4.915040	5.618629	0.927392
C	6.341685	5.581898	1.491709
C	4.127641	4.376091	1.362658
C	-2.844111	-4.945761	5.150237
C	-2.063764	-4.981091	3.986044
C	-3.063461	-3.704169	5.759875
C	-1.508324	-3.822571	3.433910
C	-2.520197	-2.536923	5.223608
C	-1.731996	-2.583191	4.058172
O	-1.234831	-1.404247	3.615239
C	0.564718	-6.691254	7.323370
C	1.448861	-5.453717	7.538888
C	0.981548	-4.290716	6.641329
C	2.927340	-5.806660	7.313806
C	1.658945	-2.945311	6.922040
C	-7.987937	-3.357731	-3.558083
C	-6.923187	-4.353531	-3.074100
C	-7.507834	-5.285734	-1.993824
C	-5.669854	-3.609980	-2.588283
C	-6.580969	-6.424509	-1.555485
C	-6.549727	-4.234350	4.127563
C	-6.987331	-3.351527	2.985319
C	-8.271356	-3.457891	2.433866
C	-6.119087	-2.382111	2.466568
C	-8.683272	-2.614216	1.400546
C	-6.526758	-1.534737	1.436311
C	-7.811360	-1.645497	0.899458
C	3.594685	-6.054465	2.870692
C	3.437114	-4.731604	3.302904
C	2.813652	-6.488009	1.787588
C	2.538870	-3.861433	2.678244
C	1.910423	-5.642430	1.158327
C	1.723430	-4.282504	1.575928
O	0.867228	-3.503862	0.991314
C	-5.292556	7.356768	1.357472
C	-4.096534	8.198126	1.821700
C	-2.773210	7.668138	1.239619
O	-2.644674	6.378083	1.345126
O	-1.961224	8.441545	0.725379
C	-5.099715	4.754778	4.160796
C	-3.685969	4.815558	4.783255
O	-3.498653	4.525572	5.968061
C	-6.095346	3.979885	5.029777
C	-5.884008	2.453887	5.081228
C	-6.759914	1.832569	6.178789
C	-6.159455	1.778633	3.730359
N	-2.700967	5.227911	3.944245
C	-1.309182	5.386099	4.359981
C	-0.371791	4.291964	3.812750
C	1.082005	4.625499	4.174577
C	-0.762435	2.894102	4.306733
C	-4.469039	4.534062	-1.933734
C	-3.021976	4.233335	-1.654972
C	-2.157334	3.307487	-2.195057
N	-2.300080	4.902097	-0.681702
C	-1.071885	4.384104	-0.641058
N	-0.943477	3.420622	-1.548556
C	-4.834929	4.308357	-7.021710
C	-4.365023	2.990772	-6.432099
C	-3.058293	2.539059	-6.670961
C	-5.160005	2.269632	-5.531999
C	-2.545340	1.430551	-5.998574
C	-4.654186	1.151606	-4.862486
C	-3.338963	0.737817	-5.080786
O	0.570870	1.191401	-3.403691
O	0.841501	-0.943495	1.449282
H	3.916172	0.415981	-4.622075
H	3.040396	0.826365	-6.114504
H	2.699232	-3.486948	-2.595658
H	1.268527	-2.604613	-2.084529
H	2.401679	-5.866140	-3.529644
H	-0.720340	-3.775254	-1.458423
H	1.185101	-8.001401	-3.223476
H	-1.962506	-5.895244	-1.183229
H	-1.021974	-8.021557	-2.069227
H	1.873201	-3.541040	-4.948435
H	-1.444194	-5.904745	-7.218458
H	-2.029682	-5.765346	-5.552050
H	-2.178878	-3.611315	-7.728628
H	-3.525024	-4.214797	-6.750791
H	-2.150500	-1.933669	-5.998540
H	-2.718257	-3.066031	-4.769324
H	0.265697	-5.204814	-5.211986
H	2.645266	2.420226	-4.081334
H	1.599154	3.400958	-3.091391
H	3.293963	3.511127	-1.297198
H	6.952731	-1.351755	-2.868124
H	5.227204	-1.146784	-3.052997
H	3.658563	-1.961036	-0.755724
H	8.789894	-2.234740	-1.384310
H	10.065340	-3.700496	0.152801
H	6.430521	-4.868789	2.180823
H	8.911498	-5.002382	1.917153
H	6.574021	0.528625	-0.923004
H	1.285252	9.116926	-1.433361
H	4.984352	5.615901	-0.167939
H	6.864339	4.679888	1.159738
H	6.924508	6.448662	1.160082
H	6.333814	5.582199	2.589675
H	4.614918	3.461857	1.011269
H	3.108778	4.371802	0.960100
H	4.054534	4.319980	2.456375
H	4.080450	6.924226	2.445854
H	-1.868983	-5.931076	3.494468
H	-3.662753	-3.639613	6.665498
H	-0.893344	-3.866316	2.535684
H	-2.683218	-1.573197	5.696258
H	-0.673625	-1.475652	2.817641
H	1.331813	-5.136726	8.588450
H	3.099506	-6.089600	6.268525
H	3.587451	-4.963716	7.541492
H	3.235302	-6.647994	7.947086
H	1.141693	-4.561979	5.590075
H	-0.102355	-4.169340	6.758289
H	1.523623	-2.639603	7.967784
H	2.735021	-2.975131	6.721119
H	1.231423	-2.162682	6.288139
H	0.646501	-7.048737	6.290065
H	-6.635291	-4.980303	-3.933234
H	-4.858001	-4.295118	-2.327925
H	-5.291561	-2.932877	-3.362630
H	-5.893371	-3.008944	-1.699038
H	-7.784910	-4.682871	-1.117964
H	-8.443641	-5.716709	-2.377409
H	-6.268781	-7.034708	-2.411841
H	-5.676647	-6.049663	-1.067526
H	-7.083914	-7.086315	-0.842331
H	-8.310134	-2.705859	-2.736949
H	-5.472604	-4.417666	4.107858
H	-7.066844	-5.199777	4.108256
H	-8.955666	-4.210814	2.819570
H	-5.113760	-2.293584	2.870134
H	-9.684805	-2.712718	0.989055
H	-5.829565	-0.797700	1.054217
H	-8.129186	-0.982732	0.099110
H	2.918504	-7.511223	1.427585
H	4.029459	-4.363682	4.139714
H	1.313798	-5.995361	0.322326
H	2.426398	-2.836942	3.025223
H	0.901234	-1.939229	1.274996
H	-4.211265	9.250666	1.544912
H	-4.023649	8.151858	2.917286
H	-5.416349	7.422164	0.269526
H	-6.019875	4.376351	6.047839
H	-7.115989	4.185626	4.674475
H	-4.835553	2.280930	5.353057
H	-6.606495	0.749663	6.244763
H	-6.532208	2.266035	7.158795
H	-7.825851	2.003174	5.975821
H	-5.993805	0.697904	3.784638
H	-5.511645	2.167348	2.938149
H	-7.199998	1.937674	3.417528
H	-5.447511	5.789030	4.040463
H	-0.465590	4.310084	2.716778
H	1.772464	3.885232	3.758138
H	1.220586	4.631294	5.263163
H	1.376318	5.612806	3.798099
H	-0.120884	2.121673	3.870080
H	-0.678211	2.827985	5.397749
H	-1.796542	2.655228	4.044133
H	-1.292063	5.379789	5.454456
H	-4.836754	3.876112	-2.724586
H	-5.083244	4.375209	-1.040621
H	-2.305951	2.563024	-2.960963
H	-0.309356	4.693698	0.055318
H	-4.606595	4.352577	-8.094330
H	-5.922480	4.401231	-6.921332
H	-6.178221	2.600335	-5.336660
H	-2.423963	3.084975	-7.366170
H	-5.279706	0.619079	-4.151312
H	-1.517502	1.118187	-6.156660
H	-2.910475	-0.092545	-4.529617
H	10.507214	3.253856	-0.667205
H	9.926411	4.206100	0.706708
H	9.083561	1.296984	0.155236
H	8.679445	2.217180	1.588113
H	11.496035	1.359773	0.774092
H	12.167116	2.038664	3.088497
H	11.565441	3.426791	2.172397
H	10.534241	2.652943	3.384229
H	11.314301	-0.303470	2.629814
H	10.049496	-0.583923	1.420285
H	9.651742	0.212885	2.943627
H	-0.075857	2.676242	-1.460446
H	4.843005	7.784502	1.097740
H	1.272314	7.346277	-1.541052
H	0.550536	8.144493	-0.136297
H	-6.230614	7.694470	1.814849
H	-8.876108	-3.874148	-3.940962
H	4.547213	-0.089119	-6.219350
H	6.941673	0.937159	-2.589457
H	3.824174	4.209607	-2.814589
H	4.298069	-6.722987	3.359459
H	0.857267	-7.514849	7.986497
H	-6.774944	-3.765369	5.094263
H	-0.960749	6.366274	4.012984
H	-3.260005	-5.856744	5.570452
H	-2.575710	5.616635	0.086779
H	0.346548	0.244425	-3.498238
H	-0.490691	-6.462929	7.507787
H	-2.910507	5.533951	2.987308
H	2.378889	-0.943256	-3.604443
H	2.160388	6.565633	0.920155
H	4.040426	0.710067	-2.088515
H	8.784375	3.619349	-0.511472
H	4.177100	-3.552647	1.109666
C	0.462238	0.955417	-0.012137
C	1.342306	-0.274096	0.300030
H	2.373053	0.076698	0.457214
H	0.485288	1.566401	0.903632
C	-0.997344	0.551911	-0.225108
C	-2.004219	1.091394	0.583708
C	-1.373102	-0.334840	-1.242030
C	-3.350675	0.799193	0.354775
H	-1.732172	1.760108	1.396094
C	-2.713595	-0.641395	-1.468901
H	-0.620095	-0.785078	-1.875115
C	-3.711231	-0.061167	-0.682513
H	-4.113756	1.247871	0.985950
H	-2.973930	-1.333665	-2.265064
H	-4.757308	-0.281820	-0.878134
H	1.363089	-0.945453	-0.561686
H	-4.610793	5.572958	-2.252726
H	-5.138931	6.307375	1.609902
H	-5.034120	4.344261	3.146944
H	-7.600802	-2.716060	-4.357274
H	0.403766	-4.376564	-6.779705
C	-4.135036	5.474011	-6.296831
H	-3.049089	5.404784	-6.405295
H	-4.454588	6.444636	-6.694260
H	-4.359244	5.453938	-5.226344