290			
			
C	-2.411746	8.009306	0.125157
C	-2.562682	0.501648	6.256810
C	-1.523101	-0.622317	6.267824
C	-3.379291	7.457468	-0.933879
O	-3.460732	7.974032	-2.046367
O	-1.059822	-1.058909	7.322035
N	-1.148453	-1.111263	5.047818
N	-4.183034	6.432997	-0.550587
C	-0.173132	-2.190894	4.947409
C	1.265587	-1.622155	4.940047
O	1.556641	-0.641974	4.229297
C	-0.422275	-2.999629	3.649127
C	0.453640	-4.226973	3.519266
C	0.084055	-5.435605	4.128380
C	1.657328	-4.181306	2.802677
C	0.900128	-6.564552	4.036759
C	2.476912	-5.307444	2.710770
C	2.103227	-6.501720	3.330199
N	2.225490	-2.218735	5.673205
C	2.097149	-3.387750	6.558228
C	3.552200	-3.810900	6.799628
C	4.318677	-2.480481	6.752166
C	3.605544	-1.702621	5.638706
C	-3.516415	3.098758	2.592041
C	-4.742451	2.181299	2.756998
O	-5.873191	2.671869	2.740664
C	-2.102176	2.549151	2.864980
C	-1.661026	1.334052	2.025023
O	-1.189734	1.571721	0.864662
O	-1.796636	0.176165	2.514279
N	-4.521301	0.847258	2.901394
C	-5.622340	-0.096831	3.036789
C	-5.147538	-1.507132	3.460783
C	-5.015697	-2.495812	2.337084
C	-3.882194	-2.838044	1.638179
C	-6.088690	-3.272848	1.765988
C	-5.524804	-4.064364	0.724160
C	-7.464793	-3.388167	2.032645
N	-4.181026	-3.780476	0.676756
C	-6.293597	-4.947744	-0.042189
C	-8.231587	-4.264999	1.273404
C	-7.650919	-5.035530	0.243798
C	-9.805063	1.898365	1.247810
C	-9.548480	0.673290	0.363280
C	-10.810339	-0.037606	-0.163713
C	-11.654031	0.863646	-1.077420
C	-10.433764	-1.339916	-0.885151
C	-5.269004	5.986635	-1.399074
C	-5.698633	4.541256	-1.092343
C	-7.000786	4.216750	-1.837133
C	-4.598400	3.529374	-1.438108
C	-1.704628	6.992643	1.030751
O	-0.942340	6.043880	0.323400
C	4.041291	-6.368269	-4.737005
C	3.358445	-5.053871	-4.423961
C	2.781564	-4.814721	-3.168343
C	3.277985	-4.024670	-5.372367
C	2.158744	-3.607079	-2.859158
C	-0.176462	-7.709183	-5.969993
C	2.661997	-2.807675	-5.083865
C	2.094035	-2.580411	-3.819512
C	-0.990579	-6.564965	-6.591927
C	-0.666548	-5.230032	-5.893147
O	1.519902	-1.381439	-3.584605
C	-2.490118	-6.896743	-6.564449
C	-1.290239	-3.989811	-6.541979
C	9.091218	-1.419509	2.817130
C	8.375441	-2.765714	2.630172
C	9.158352	-3.662841	1.650382
C	6.922020	-2.544418	2.184801
C	8.646748	-5.103597	1.546634
C	6.778500	-3.729215	-4.339776
C	7.236807	-2.639062	-3.399147
C	8.583971	-2.498860	-3.044556
C	6.310012	-1.733388	-2.860009
C	9.000657	-1.483077	-2.180200
C	6.720843	-0.716418	-1.999134
C	8.069629	-0.586268	-1.655198
C	-3.290096	-8.129874	-1.599549
C	-2.486281	-6.899481	-1.235259
C	-2.524793	-5.729814	-2.003446
C	-1.678171	-6.883481	-0.087008
C	-1.800655	-4.583135	-1.649080
C	3.930310	7.834293	-3.008915
C	-0.950737	-5.759143	0.283166
C	2.416195	8.002503	-2.822072
C	-1.004170	-4.585882	-0.491482
C	1.806299	7.023002	-1.813582
O	-0.292896	-3.519590	-0.062736
O	2.115823	5.781460	-1.978148
O	1.059905	7.463415	-0.913499
C	3.805344	4.815846	-5.362138
C	2.318315	4.757501	-5.756067
O	1.986853	4.582045	-6.930846
C	4.576612	3.620828	-5.950921
C	4.037376	2.227941	-5.564475
C	4.844990	1.130783	-6.273197
C	4.006995	1.980385	-4.048669
N	1.412531	4.882688	-4.748901
C	-0.028091	4.830947	-5.026114
C	-0.894018	5.276179	-3.845238
C	-2.316860	5.571576	-4.339201
C	-0.900955	4.238313	-2.713126
C	4.070888	5.487660	0.726143
C	2.929362	4.595123	1.049222
C	2.665541	3.833911	2.151815
N	1.860751	4.440749	0.188394
C	0.969375	3.626184	0.746831
N	1.440863	3.235146	1.938573
C	5.169792	6.142884	5.670003
C	5.072972	4.683907	5.275598
C	4.062808	3.862277	5.798107
C	5.976974	4.120134	4.364628
C	3.951020	2.525965	5.410488
C	5.872677	2.782252	3.977149
C	4.853978	1.981085	4.493809
O	0.036031	-1.303722	-1.418112
H	-3.080594	0.608247	5.302711
H	-2.061535	1.446191	6.492737
H	-1.477084	-3.292308	3.651615
O	0.563019	1.819091	4.129526
H	-0.271283	-2.336483	2.792647
H	-0.857959	-5.493143	4.668935
H	1.939064	-3.262724	2.297121
H	0.592217	-7.493593	4.508636
H	3.400219	-5.254914	2.140831
H	2.736533	-7.380689	3.250101
H	-0.315102	-2.824013	5.825100
H	3.673816	-4.351254	7.742123
H	3.880952	-4.466906	5.986394
H	4.214880	-1.951318	7.706216
H	5.386249	-2.602583	6.551772
H	3.608898	-0.621385	5.792783
H	4.044312	-1.896697	4.652081
H	1.514769	-4.178463	6.083662
H	-1.995689	2.274253	3.914927
H	-1.401894	3.365252	2.668850
H	-3.565375	3.480820	1.565028
H	-5.871443	-1.900426	4.184907
H	-4.200554	-1.423402	4.006214
H	-2.874272	-2.463607	1.742195
H	-7.924825	-2.800416	2.823043
H	-9.294509	-4.363618	1.476056
H	-5.840569	-5.540803	-0.831214
H	-8.275691	-5.710641	-0.334308
H	-6.189632	-0.160845	2.099275
H	-5.907186	4.465300	-0.013115
H	-7.335909	3.199851	-1.609708
H	-7.806536	4.905982	-1.560647
H	-6.858092	4.285212	-2.922644
H	-4.897321	2.512043	-1.167614
H	-3.660258	3.752888	-0.922034
H	-4.387399	3.539862	-2.513782
H	-4.940896	6.078924	-2.437259
H	-0.687380	-6.470874	-7.646776
H	-0.197709	6.517566	-0.124980
H	-2.847883	-6.984628	-5.530695
H	4.784421	-6.633034	-3.975479
H	4.557435	-6.326711	-5.701154
H	-3.090960	-6.127943	-7.059729
H	2.817098	-5.591890	-2.407485
H	-2.693622	-7.849714	-7.066521
H	3.711469	-4.174623	-6.359250
H	-0.981264	-5.292105	-4.842210
H	1.716156	-3.457448	-1.879032
H	0.422276	-5.101085	-5.869054
H	2.604204	-2.018299	-5.826988
H	-1.004851	-3.907965	-7.597919
H	1.057586	-1.366600	-2.696524
H	-2.384571	-4.002007	-6.495352
H	-0.949124	-3.080385	-6.037905
H	-0.433180	-7.838391	-4.911558
H	8.358541	-3.275514	3.606533
H	6.365617	-3.483888	2.112276
H	6.388314	-1.901109	2.894213
H	6.884665	-2.059468	1.202371
H	9.144444	-3.197012	0.655452
H	10.211077	-3.683072	1.964374
H	8.637316	-5.592879	2.528194
H	7.630983	-5.149136	1.142405
H	9.285589	-5.699355	0.886259
H	9.139059	-0.871219	1.868226
H	5.983100	-4.328999	-3.889977
H	7.603891	-4.394117	-4.612021
H	9.316420	-3.192005	-3.452063
H	5.259239	-1.827813	-3.121709
H	10.052927	-1.389988	-1.924188
H	5.986572	-0.021368	-1.601897
H	8.390909	0.211558	-0.991169
H	2.165338	9.017743	-2.503245
H	1.913744	7.827483	-3.782419
H	-2.682584	-9.039646	-1.535311
H	4.467967	8.046146	-2.077149
H	-3.680634	-8.062864	-2.619649
H	4.542600	3.708849	-7.042533
H	5.632534	3.699651	-5.653812
H	-3.134327	-5.700567	-2.904088
H	-1.618809	-7.774526	0.534851
H	3.005310	2.170653	-5.934351
H	-1.850662	-3.691080	-2.266261
H	4.436212	0.137525	-6.057297
H	-0.331590	-5.763072	1.173066
H	4.838804	1.269939	-7.360225
H	-0.327258	-2.727420	-0.677648
H	5.891148	1.134726	-5.940958
H	3.572036	0.998962	-3.828901
H	3.402468	2.727123	-3.525071
H	5.019588	2.005039	-3.624074
H	4.219514	5.746757	-5.767407
H	-0.480255	6.213803	-3.450764
H	-2.924224	6.000774	-3.539963
H	-2.804028	4.657614	-4.702972
H	-2.306867	6.295174	-5.161903
H	-1.387904	4.638283	-1.819431
H	-1.432142	3.330570	-3.026159
H	0.117417	3.950478	-2.435262
H	-0.304696	3.809937	-5.327526
H	4.852109	5.392217	1.484002
H	4.497982	5.247586	-0.252122
H	3.237774	3.664168	3.047696
H	0.018222	3.318296	0.342756
H	4.987939	6.238159	6.748112
H	6.193307	6.495826	5.498075
H	6.774953	4.736562	3.957349
H	3.357475	4.276521	6.515054
H	6.583135	2.368341	3.267477
H	3.155052	1.906327	5.814180
H	4.751976	0.947895	4.177642
H	-10.449679	1.643508	2.098020
H	-10.289969	2.710332	0.695958
H	-8.954766	-0.054813	0.931329
H	-8.922846	0.965956	-0.492619
H	-11.428209	-0.303001	0.708905
H	-12.544644	0.335883	-1.437328
H	-11.991069	1.769233	-0.563774
H	-11.075919	1.175040	-1.956533
H	-11.324770	-1.877618	-1.229790
H	-9.864440	-2.010241	-0.232546
H	-9.812959	-1.132011	-1.765558
H	0.854739	0.874852	4.162200
H	0.916243	2.228478	4.927508
H	-6.135337	6.657421	-1.284867
H	4.309735	8.521549	-3.772836
H	10.118015	-1.557209	3.174305
H	-3.284908	0.302910	7.051409
H	-6.315325	0.314157	3.779582
H	-3.701347	3.956892	3.245765
H	-0.368032	-8.661482	-6.478374
H	6.364545	-3.306899	-5.261574
H	-0.220308	5.463637	-5.900558
H	3.325763	-7.199448	-4.783973
H	-4.147318	-8.267611	-0.928160
H	1.818215	4.979465	-0.772556
H	0.898595	-7.506615	-6.025953
H	1.726174	5.098698	-3.802234
H	-1.428330	-0.627108	4.189740
H	-3.576964	0.472044	2.826593
H	-8.862611	2.285645	1.648567
H	-3.521666	-4.148884	0.003800
C	-0.405528	-0.062389	-0.080972
C	-0.817553	-0.167906	-1.485322
H	-0.395491	0.616684	-2.127010
H	-0.847092	-0.720615	0.649288
C	-4.821168	-1.115190	-2.775944
C	-3.746657	-1.146046	-3.669857
C	-4.603967	-0.758580	-1.445586
C	-2.465066	-0.822728	-3.229443
H	-3.907938	-1.420920	-4.708676
C	-3.318183	-0.431028	-1.004313
H	-5.431526	-0.744865	-0.742766
C	-2.238902	-0.465394	-1.891243
H	-1.623946	-0.852385	-3.918207
H	-3.159656	-0.153141	0.031288
H	0.573948	0.342644	0.116645
H	-5.821436	-1.369594	-3.114965
H	3.746566	6.533402	0.686199
H	4.174468	6.815517	-3.310891
H	3.912217	4.857515	-4.273839
H	8.566666	-0.784937	3.540267
H	1.597155	-3.095564	7.490422
C	4.185903	7.057250	4.916111
H	3.149691	6.748902	5.086409
H	4.289197	8.095540	5.247364
H	4.365288	7.025612	3.837019
H	-4.124667	6.073644	0.390071
H	-1.662561	8.583608	-0.426603
H	-2.974605	8.720391	0.747520
H	-1.087707	7.554026	1.753007
H	-2.434562	6.431849	1.633169
H	0.988050	2.619000	2.636212