290			
			
C	-2.555994	7.922170	0.409979
C	-2.682167	0.125241	6.169917
C	-1.666359	-1.016417	6.122345
C	-3.497418	7.407262	-0.690393
O	-3.580187	7.984510	-1.773117
O	-1.285579	-1.569131	7.154990
N	-1.208297	-1.389251	4.884632
N	-4.282128	6.346279	-0.375761
C	-0.228474	-2.463399	4.772570
C	1.208712	-1.896307	4.773767
O	1.501872	-0.902145	4.084155
C	-0.473256	-3.302255	3.492437
C	0.367325	-4.559096	3.413841
C	-0.081253	-5.753462	3.996673
C	1.617317	-4.554683	2.779684
C	0.702191	-6.908377	3.962200
C	2.405849	-5.705960	2.746764
C	1.952855	-6.886005	3.341145
N	2.165719	-2.512646	5.498443
C	2.035069	-3.701404	6.361624
C	3.489554	-4.134601	6.586683
C	4.260610	-2.806109	6.568980
C	3.546331	-1.997353	5.478185
C	-3.619611	2.881483	2.618940
C	-4.826122	1.927032	2.702546
O	-5.967869	2.390617	2.646160
C	-2.201554	2.356458	2.905672
C	-1.723225	1.232937	1.961960
O	-1.268148	1.593556	0.834915
O	-1.843792	0.034230	2.360060
N	-4.581954	0.594824	2.840437
C	-5.679970	-0.364172	2.874183
C	-5.224210	-1.790344	3.267909
C	-5.027222	-2.740667	2.119390
C	-3.838857	-3.174830	1.583480
C	-6.067381	-3.396287	1.362498
C	-5.426410	-4.209702	0.383040
C	-7.472855	-3.388280	1.419613
N	-4.068917	-4.057885	0.547775
C	-6.148255	-4.991254	-0.526424
C	-8.192396	-4.165991	0.519596
C	-7.535364	-4.957077	-0.446245
C	-9.865636	1.650082	1.113671
C	-9.625267	0.596649	0.026795
C	-10.897085	-0.043959	-0.562384
C	-11.798519	0.979003	-1.269575
C	-10.531778	-1.191726	-1.515228
C	-5.355245	5.931508	-1.257314
C	-5.800898	4.484019	-0.989024
C	-7.108653	4.194246	-1.737966
C	-4.713436	3.469614	-1.366555
C	-1.850284	6.881911	1.288275
O	-1.038691	5.991554	0.561374
C	4.207267	-6.101492	-5.029890
C	3.575199	-4.815456	-4.539033
C	3.113947	-4.693132	-3.220178
C	3.439918	-3.694531	-5.369917
C	2.558080	-3.510048	-2.738595
C	0.032118	-7.446479	-6.396235
C	2.886537	-2.500150	-4.907967
C	2.439791	-2.390163	-3.581267
C	-0.818644	-6.244951	-6.834226
C	-0.476154	-5.004415	-5.985396
O	1.931630	-1.206048	-3.174008
C	-2.313408	-6.595372	-6.789218
C	-1.084491	-3.690052	-6.485377
C	9.054832	-1.446194	2.836892
C	7.826632	-2.331597	2.575963
C	8.173962	-3.458331	1.581965
C	6.638710	-1.480642	2.101756
C	7.070227	-4.502157	1.379440
C	6.894404	-3.442587	-4.460483
C	7.437877	-2.378993	-3.534553
C	8.787157	-2.353397	-3.161444
C	6.587893	-1.387271	-3.020570
C	9.280494	-1.366820	-2.303859
C	7.075825	-0.398206	-2.167693
C	8.425942	-0.383280	-1.805125
C	-3.143480	-8.126367	-2.103705
C	-2.261838	-7.003634	-1.609833
C	-2.307689	-5.723794	-2.174554
C	-1.364566	-7.209512	-0.550049
C	-1.494424	-4.682508	-1.710521
C	3.837200	7.997409	-2.622529
C	-0.545803	-6.192889	-0.075358
C	2.324956	8.168727	-2.427785
C	-0.595342	-4.912307	-0.655634
C	1.708074	7.127704	-1.487545
O	0.224368	-3.962529	-0.163202
O	2.020877	5.900097	-1.727531
O	0.956325	7.510932	-0.565736
C	3.798976	5.094762	-5.120020
C	2.319640	5.010600	-5.536978
O	2.011182	4.838719	-6.718696
C	4.601411	3.913423	-5.693595
C	4.090222	2.511805	-5.300973
C	4.934849	1.428151	-5.987027
C	4.045729	2.280028	-3.782822
N	1.395149	5.101341	-4.542954
C	-0.039063	5.034099	-4.847725
C	-0.931991	5.506987	-3.697140
C	-2.336993	5.823602	-4.228989
C	-0.985002	4.479099	-2.557827
C	3.956496	5.475303	0.997119
C	2.818530	4.556023	1.252939
C	2.544896	3.730078	2.305381
N	1.761582	4.444494	0.370922
C	0.867738	3.593986	0.868950
N	1.326127	3.138961	2.041599
C	4.965663	5.907570	5.984441
C	4.883583	4.463962	5.533521
C	3.924196	3.593485	6.071889
C	5.753530	3.963959	4.554398
C	3.829092	2.270417	5.634791
C	5.661950	2.642176	4.112975
C	4.693779	1.791133	4.647134
O	0.327278	-1.556538	-1.071978
H	-3.232115	0.257073	5.236304
H	-2.151150	1.057300	6.391247
H	-1.534036	-3.569290	3.495744
O	0.525332	1.601020	4.190569
H	-0.291337	-2.672398	2.617573
H	-1.057292	-5.778168	4.475729
H	1.960238	-3.650118	2.287725
H	0.333091	-7.825145	4.413705
H	3.367150	-5.684652	2.241071
H	2.563231	-7.784130	3.308149
H	-0.371491	-3.089183	5.654962
H	3.613278	-4.698327	7.515141
H	3.811709	-4.771507	5.755901
H	4.162976	-2.300917	7.536655
H	5.327054	-2.926664	6.361301
H	3.549550	-0.921027	5.664107
H	3.987095	-2.159791	4.486415
H	1.446261	-4.478604	5.874884
H	-2.122334	1.997336	3.932681
H	-1.520114	3.205188	2.801944
H	-3.647735	3.308189	1.609140
H	-5.984806	-2.209811	3.938531
H	-4.306044	-1.728601	3.862698
H	-2.831009	-2.903879	1.858302
H	-7.991258	-2.783721	2.159181
H	-9.278071	-4.169852	0.560190
H	-5.638201	-5.602044	-1.265412
H	-8.124499	-5.551655	-1.138740
H	-6.192913	-0.390832	1.903787
H	-6.006313	4.379149	0.088101
H	-7.450879	3.173388	-1.540559
H	-7.907640	4.880750	-1.436320
H	-6.970268	4.296114	-2.821549
H	-5.015277	2.452220	-1.100427
H	-3.763656	3.678960	-0.866229
H	-4.522746	3.490230	-2.446047
H	-5.007458	6.040823	-2.287923
H	-0.559317	-6.013990	-7.879597
H	-0.295820	6.506327	0.157445
H	-2.623056	-6.833318	-5.763696
H	5.056489	-6.401594	-4.404187
H	4.575017	-5.996081	-6.055205
H	-2.939267	-5.770074	-7.142511
H	3.191191	-5.543903	-2.546056
H	-2.535077	-7.469027	-7.413154
H	3.781417	-3.751784	-6.401592
H	-0.790408	-5.182254	-4.947591
H	2.203771	-3.453207	-1.714930
H	0.614731	-4.896690	-5.950427
H	2.782406	-1.640988	-5.563462
H	-0.788866	-3.485546	-7.521648
H	1.447501	-1.295176	-2.310081
H	-2.179252	-3.699635	-6.449653
H	-0.743299	-2.849769	-5.873260
H	-0.179336	-7.713546	-5.353800
H	7.546352	-2.804398	3.530924
H	5.720373	-2.068001	2.007516
H	6.438319	-0.664052	2.805293
H	6.845658	-1.034960	1.121415
H	8.433553	-3.008724	0.613527
H	9.081615	-3.965367	1.937492
H	6.772143	-4.954409	2.333481
H	6.176751	-4.068461	0.920481
H	7.411466	-5.309258	0.723023
H	9.381211	-0.953017	1.913647
H	6.074271	-3.989505	-3.987956
H	7.671898	-4.157499	-4.746229
H	9.460600	-3.114714	-3.548624
H	5.535463	-1.395173	-3.291769
H	10.332806	-1.365270	-2.031532
H	6.399990	0.363654	-1.789534
H	8.807415	0.391931	-1.146135
H	2.082739	9.162351	-2.041225
H	1.822504	8.064631	-3.398484
H	-2.565050	-9.036955	-2.298119
H	4.374201	8.141156	-1.677498
H	-3.652127	-7.854121	-3.033723
H	4.576755	3.994003	-6.786045
H	5.652254	4.016873	-5.386239
H	-2.987862	-5.526985	-3.000495
H	-1.305075	-8.192842	-0.087695
H	3.064924	2.424983	-5.684447
H	-1.538513	-3.698109	-2.167522
H	4.547201	0.427072	-5.768391
H	0.147626	-6.366867	0.740364
H	4.942315	1.557377	-7.075298
H	0.163484	-3.090425	-0.666952
H	5.975256	1.459817	-5.638884
H	3.642904	1.286682	-3.555532
H	3.409880	3.011968	-3.275627
H	5.051331	2.346837	-3.345825
H	4.201472	6.032395	-5.521458
H	-0.511260	6.440786	-3.301211
H	-2.956546	6.272133	-3.449002
H	-2.831919	4.914631	-4.595448
H	-2.292677	6.536222	-5.060405
H	-1.476949	4.890076	-1.672509
H	-1.531589	3.582446	-2.875856
H	0.021579	4.170812	-2.259895
H	-0.307340	4.004437	-5.128546
H	4.731662	5.339300	1.754872
H	4.394444	5.299514	0.009994
H	3.106520	3.516086	3.198363
H	-0.081113	3.305450	0.444402
H	4.777450	5.959783	7.064011
H	5.987167	6.275151	5.831301
H	6.514472	4.618504	4.135824
H	3.249335	3.956337	6.843774
H	6.342405	2.278653	3.348491
H	3.087113	1.606563	6.071863
H	4.602358	0.770535	4.289686
H	-10.481230	1.244373	1.926055
H	-10.376556	2.535764	0.721845
H	-8.996667	-0.202964	0.440058
H	-9.041371	1.042286	-0.791750
H	-11.469380	-0.471971	0.275828
H	-12.691546	0.497092	-1.683900
H	-12.134552	1.769558	-0.591606
H	-11.265512	1.457874	-2.100689
H	-11.427632	-1.691634	-1.901398
H	-9.912560	-1.944585	-1.015986
H	-9.965563	-0.817229	-2.377007
H	0.821054	0.662406	4.122657
H	1.071088	1.990225	4.884845
H	-6.215898	6.609418	-1.144783
H	4.226592	8.729808	-3.338123
H	9.898675	-2.033463	3.216030
H	-3.373950	-0.072922	6.990122
H	-6.416595	0.011705	3.592198
H	-3.852552	3.703342	3.304304
H	-0.166010	-8.329591	-7.014791
H	6.485794	-3.000216	-5.374849
H	-0.211562	5.642139	-5.743136
H	3.493344	-6.934793	-5.019608
H	-3.917879	-8.390050	-1.371860
H	1.724490	5.026921	-0.558468
H	1.099993	-7.212938	-6.467667
H	1.687974	5.300384	-3.585435
H	-1.399978	-0.819802	4.053341
H	-3.629114	0.241505	2.733501
H	-8.916290	1.978489	1.549385
H	-3.353097	-4.454308	-0.047837
C	-0.031993	-0.935864	0.143362
C	-0.671892	0.071835	-0.699338
H	0.004455	0.806789	-1.121131
H	-0.709873	-1.524319	0.762958
C	-4.399149	-0.345903	-2.722653
C	-3.326700	0.299831	-3.342248
C	-4.263515	-0.838806	-1.421121
C	-2.118700	0.445852	-2.664479
H	-3.430952	0.688756	-4.350699
C	-3.054262	-0.699914	-0.745639
H	-5.099513	-1.327767	-0.930758
C	-1.965545	-0.068145	-1.365709
H	-1.278344	0.936003	-3.147221
H	-2.955067	-1.039013	0.277496
H	0.797478	-0.564039	0.757888
H	-5.342849	-0.457956	-3.249159
H	3.623964	6.519112	1.018936
H	4.071627	6.998795	-2.990608
H	3.889254	5.139491	-4.030618
H	8.833996	-0.663184	3.571151
H	1.541659	-3.425529	7.302372
C	3.979128	6.841960	5.259091
H	2.944450	6.519424	5.411782
H	4.072768	7.867803	5.629625
H	4.164658	6.852057	4.180719
H	-4.220101	5.929568	0.540687
H	-1.805410	8.531967	-0.100478
H	-3.142464	8.598300	1.049494
H	-1.273583	7.424121	2.056992
H	-2.581976	6.271862	1.838330
H	0.872761	2.470137	2.686866