290			
			
C	-2.583575	7.905531	0.058988
C	-2.579505	0.470419	6.280240
C	-1.558526	-0.675960	6.312569
C	-3.537931	7.320359	-0.994102
O	-3.611974	7.795571	-2.125808
O	-1.065342	-1.071199	7.368868
N	-1.226403	-1.224767	5.102144
N	-4.335333	6.299206	-0.588084
C	-0.131272	-2.185619	5.005145
C	1.219690	-1.448686	5.153951
O	1.385750	-0.342223	4.618901
C	-0.217667	-2.942363	3.657962
C	0.686174	-4.152475	3.577349
C	0.284797	-5.376900	4.133221
C	1.943382	-4.082817	2.963582
C	1.118826	-6.495460	4.088523
C	2.781722	-5.197891	2.916887
C	2.373702	-6.407860	3.481424
N	2.216975	-2.051593	5.851500
C	2.162529	-3.313978	6.632000
C	3.624863	-3.537740	7.037322
C	4.178379	-2.111395	7.177466
C	3.504164	-1.357284	6.024642
C	-3.585016	3.002296	2.583800
C	-4.821161	2.076267	2.691453
O	-5.954377	2.560384	2.761280
C	-2.319602	2.443847	1.872709
C	-1.500808	1.346889	2.572037
O	-0.291485	1.131014	1.036456
O	-1.938685	0.175714	2.747051
N	-4.580284	0.740179	2.762520
C	-5.622233	-0.232277	3.065241
C	-5.066763	-1.633613	3.399680
C	-4.997517	-2.581998	2.236883
C	-3.878119	-3.054831	1.596747
C	-6.124411	-3.206247	1.584161
C	-5.605232	-4.042797	0.554649
C	-7.516837	-3.154732	1.775364
N	-4.234778	-3.933475	0.592424
C	-6.434308	-4.802970	-0.278047
C	-8.343271	-3.911940	0.952554
C	-7.806252	-4.724946	-0.067487
C	-9.845007	1.650919	1.249149
C	-9.729460	0.599836	0.139337
C	-11.058833	-0.031760	-0.317656
C	-12.025772	0.999100	-0.918525
C	-10.796846	-1.172969	-1.311711
C	-5.395109	5.803757	-1.443083
C	-5.870001	4.403291	-1.024311
C	-7.157334	4.039007	-1.775586
C	-4.781859	3.345772	-1.246150
C	-1.815905	6.912042	0.942232
O	-0.974024	6.054431	0.211715
C	4.182054	-6.387214	-4.625097
C	3.292343	-5.178382	-4.487185
C	2.609461	-4.931043	-3.291876
C	3.088090	-4.285818	-5.549227
C	1.741417	-3.851861	-3.156763
C	-0.004617	-7.833201	-5.845198
C	2.227498	-3.196529	-5.432097
C	1.537093	-2.975645	-4.233439
C	-1.087664	-6.874664	-6.362968
C	-0.937276	-5.495162	-5.694059
O	0.684468	-1.919538	-4.171894
C	-2.484815	-7.480645	-6.165034
C	-1.858552	-4.394770	-6.230997
C	9.116574	-1.240789	2.873022
C	7.795402	-2.010165	2.730273
C	8.050180	-3.417673	2.154540
C	6.791462	-1.206476	1.890052
C	6.825962	-4.339505	2.137069
C	6.861495	-3.685334	-4.257440
C	7.699737	-2.807556	-3.357546
C	8.814052	-3.315001	-2.678233
C	7.383613	-1.451062	-3.189559
C	9.594559	-2.495463	-1.859211
C	8.157996	-0.628062	-2.373165
C	9.269768	-1.147442	-1.704217
C	-3.113045	-8.268324	-1.472464
C	-2.309261	-7.054298	-1.076066
C	-2.360077	-5.866574	-1.813183
C	-1.491661	-7.075613	0.064203
C	-1.633422	-4.732653	-1.430850
C	3.764043	7.829375	-3.067781
C	-0.759703	-5.963307	0.460748
C	2.482811	8.430218	-2.483238
C	-0.828670	-4.777278	-0.284257
C	1.660714	7.388508	-1.722504
O	-0.098354	-3.717056	0.152821
O	1.715981	6.192656	-2.191236
O	1.027654	7.729140	-0.700455
C	3.706434	4.780942	-5.384683
C	2.224372	4.489985	-5.703045
O	1.906455	3.981775	-6.781798
C	4.634668	3.704384	-5.961871
C	4.457753	2.292751	-5.368654
C	5.331792	1.284440	-6.128275
C	4.756073	2.239138	-3.862923
N	1.308825	4.830916	-4.758910
C	-0.126789	4.717632	-5.051870
C	-1.024972	5.273816	-3.946212
C	-2.418350	5.587616	-4.507341
C	-1.095922	4.301115	-2.763536
C	3.951131	5.531260	0.695299
C	2.886132	4.493648	0.675189
C	2.645951	3.411758	1.485065
N	1.868972	4.524353	-0.255756
C	1.042989	3.513806	-0.003919
N	1.492572	2.812345	1.031934
C	5.030545	6.269190	5.631795
C	5.000107	4.816043	5.197112
C	3.886815	4.006134	5.470617
C	6.070341	4.251826	4.490590
C	3.838633	2.677419	5.046929
C	6.033593	2.920493	4.069502
C	4.917355	2.130150	4.345335
O	0.338523	-1.505461	-1.419094
H	-3.141085	0.521020	5.345511
H	-2.040100	1.414455	6.408187
H	-1.259859	-3.256354	3.539831
O	-0.598820	1.853361	3.456230
H	0.004158	-2.247457	2.843989
H	-0.694487	-5.452903	4.600057
H	2.260094	-3.148280	2.509678
H	0.786414	-7.434808	4.521901
H	3.750366	-5.122863	2.431046
H	3.023663	-7.277304	3.440432
H	-0.251905	-2.891189	5.830869
H	3.711436	-4.130738	7.952003
H	4.150907	-4.071700	6.237866
H	3.868955	-1.681410	8.136749
H	5.269416	-2.062803	7.124727
H	3.335563	-0.298678	6.231816
H	4.091849	-1.422239	5.099126
H	1.768297	-4.134421	6.031809
H	-1.642477	3.279277	1.680117
H	-2.606972	2.039492	0.901349
H	-3.923817	3.887603	2.040791
H	-5.723726	-2.070023	4.163487
H	-4.082585	-1.541153	3.871503
H	-2.837418	-2.826558	1.776017
H	-7.943113	-2.534026	2.558835
H	-9.419432	-3.883698	1.098676
H	-6.018106	-5.432735	-1.059202
H	-8.476481	-5.303258	-0.697231
H	-6.331526	-0.304788	2.230384
H	-6.109105	4.426584	0.050633
H	-7.517653	3.050692	-1.472609
H	-7.957120	4.762254	-1.580991
H	-6.983980	4.013754	-2.858546
H	-5.088710	2.375036	-0.846550
H	-3.841344	3.628643	-0.765175
H	-4.574779	3.217997	-2.315066
H	-5.021010	5.789894	-2.470343
H	-0.930666	-6.740114	-7.444813
H	-0.229271	6.601166	-0.144582
H	-2.697911	-7.619902	-5.097393
H	4.751945	-6.575043	-3.708899
H	4.898485	-6.268780	-5.444205
H	-3.271380	-6.843864	-6.581288
H	2.746067	-5.602518	-2.447403
H	-2.563229	-8.461598	-6.647695
H	3.612904	-4.445424	-6.488566
H	-1.092652	-5.608776	-4.612221
H	1.214433	-3.706599	-2.220925
H	0.101719	-5.166899	-5.810460
H	2.075802	-2.506606	-6.255871
H	-1.736253	-4.268352	-7.313650
H	0.382091	-1.799580	-3.249647
H	-2.916404	-4.607370	-6.041513
H	-1.623303	-3.435864	-5.758451
H	-0.116806	-7.998801	-4.766811
H	7.370056	-2.135963	3.738459
H	5.813787	-1.695005	1.837884
H	6.635362	-0.208384	2.314668
H	7.155381	-1.077745	0.863710
H	8.445176	-3.316976	1.133996
H	8.844336	-3.895713	2.744436
H	6.394387	-4.444886	3.139737
H	6.041207	-3.960767	1.474595
H	7.094440	-5.341000	1.784665
H	9.585159	-1.089160	1.892893
H	5.799356	-3.635008	-3.998020
H	7.174206	-4.731578	-4.196877
H	9.074735	-4.364413	-2.793603
H	6.522578	-1.035481	-3.707143
H	10.457723	-2.910883	-1.346007
H	7.893731	0.419695	-2.261327
H	9.877640	-0.505803	-1.072630
H	2.690659	9.263608	-1.805323
H	1.855515	8.831324	-3.290894
H	-2.506008	-9.179908	-1.441497
H	4.381549	7.376185	-2.284797
H	-3.512406	-8.169771	-2.486342
H	4.444942	3.651355	-7.038974
H	5.678856	4.022836	-5.829255
H	-2.975342	-5.815776	-2.708169
H	-1.427614	-7.985769	0.656461
H	3.409482	2.006189	-5.522688
H	-1.688787	-3.822851	-2.021949
H	5.173261	0.263983	-5.760444
H	-0.129512	-5.989576	1.342465
H	5.104888	1.290906	-7.199850
H	-0.170317	-2.952577	-0.457712
H	6.398105	1.518275	-6.011357
H	4.642483	1.219067	-3.477870
H	4.083569	2.880523	-3.285447
H	5.785541	2.560572	-3.655476
H	3.949579	5.746588	-5.846642
H	-0.585439	6.213489	-3.590869
H	-3.039602	6.073411	-3.751198
H	-2.921448	4.672389	-4.846408
H	-2.354461	6.268595	-5.363955
H	-1.500897	4.779986	-1.868496
H	-1.713263	3.428918	-3.014281
H	-0.092336	3.937322	-2.527216
H	-0.369047	3.663344	-5.244506
H	4.619086	5.373098	1.545551
H	4.553151	5.511297	-0.220683
H	3.199043	3.039188	2.332097
H	0.130587	3.296896	-0.529190
H	4.811423	6.332304	6.705946
H	6.043841	6.665639	5.499735
H	6.942807	4.862759	4.269969
H	3.043330	4.423099	6.015538
H	6.875825	2.504025	3.523291
H	2.960408	2.068125	5.242700
H	4.878211	1.097258	4.011758
H	-10.369310	1.245898	2.123276
H	-10.388632	2.542135	0.919249
H	-9.067083	-0.205494	0.482918
H	-9.231176	1.045055	-0.734453
H	-11.541190	-0.465383	0.572627
H	-12.962202	0.524618	-1.233807
H	-12.278726	1.788539	-0.204335
H	-11.583562	1.477982	-1.801308
H	-11.729146	-1.666325	-1.610433
H	-10.133268	-1.931689	-0.882906
H	-10.317946	-0.792773	-2.222742
H	-0.100049	1.102298	3.839034
H	-6.246659	6.502176	-1.431504
H	4.369390	8.595918	-3.566304
H	9.830664	-1.782878	3.503210
H	-3.259664	0.351490	7.125741
H	-6.202909	0.152371	3.913276
H	-3.340315	3.333361	3.601468
H	-0.061009	-8.809791	-6.340105
H	6.947624	-3.372838	-5.305072
H	-0.320186	5.241007	-5.997871
H	3.601176	-7.295593	-4.832461
H	-3.964794	-8.426967	-0.799004
H	1.739287	5.239849	-1.059313
H	0.997720	-7.424665	-6.012893
H	1.588314	5.327065	-3.910695
H	-1.498289	-0.733653	4.241836
H	-3.616423	0.401215	2.688560
H	-8.850226	1.970036	1.577556
H	-3.585334	-4.378909	-0.040691
C	-0.045642	-0.144710	0.582683
C	-0.241973	-0.233516	-0.940714
H	0.336352	0.574561	-1.405448
H	-0.691803	-0.880515	1.090733
C	-4.223461	-0.288901	-2.613402
C	-3.114501	-0.008745	-3.415599
C	-4.051091	-0.509486	-1.247041
C	-1.841477	0.037572	-2.850298
H	-3.239183	0.176262	-4.478504
C	-2.774202	-0.463999	-0.681165
H	-4.906244	-0.720259	-0.612321
C	-1.655139	-0.201177	-1.479283
H	-0.982562	0.253740	-3.480684
H	-2.662600	-0.608691	0.386898
H	0.999833	-0.469646	0.782935
H	-5.217421	-0.325579	-3.050067
H	3.511177	6.531405	0.776487
H	3.527870	7.054002	-3.793871
H	3.849697	4.906370	-4.306829
H	8.957012	-0.253482	3.320178
H	1.516355	-3.175891	7.508519
C	4.028016	7.153084	4.866205
H	3.003004	6.793127	4.995414
H	4.069261	8.188367	5.220885
H	4.243107	7.152606	3.793233
H	-4.304493	5.991396	0.372134
H	-1.869941	8.525235	-0.490066
H	-3.173396	8.577607	0.700358
H	-1.252009	7.491584	1.691739
H	-2.509593	6.277243	1.512239
H	0.847149	1.955229	1.288499
H	1.280498	-1.493564	-1.184827