80

C	-0.555750	2.182030	1.805405
C	0.443766	1.249050	1.187097
C	0.967616	1.605307	-0.154587
C	0.015392	2.265413	-1.147221
C	-1.208980	2.981462	-0.510746
C	-0.913394	3.399846	0.942848
C	1.173764	0.302868	2.083728
O	1.832385	2.569089	0.472519
O	3.939507	1.238317	0.501761
C	5.188663	1.547708	0.613332
O	6.118433	0.891516	0.110842
C	5.499040	2.785945	1.450448
N	3.462723	-1.226398	-0.690295
C	4.412451	-1.988904	-1.219490
N	5.655516	-1.496190	-1.355844
C	6.750171	-2.224114	-1.969350
N	4.089087	-3.227068	-1.655058
O	0.883048	-2.157406	-0.037506
C	1.066022	-3.370086	0.361800
C	0.224260	-3.872309	1.538501
O	1.921792	-4.142840	-0.111620
O	-0.940230	-0.397807	0.421366
O	-3.318701	0.261077	-0.669225
C	-4.221362	-0.590065	-1.250186
C	-5.503566	-0.082826	-1.495866
C	-6.485972	-0.910798	-2.034696
C	-6.203319	-2.245894	-2.332356
C	-4.918578	-2.740065	-2.095906
C	-3.923928	-1.922739	-1.554309
O	-2.240336	-0.939951	2.732810
C	-3.474658	-0.973561	2.859103
N	-4.311414	-0.300124	2.044853
C	-4.107034	-1.793535	3.960782
C	-1.688589	4.133193	-1.381511
H	-0.083977	4.110931	0.978359
H	-0.171875	2.485639	2.787420
H	-6.969319	-2.890015	-2.752118
H	-7.477403	-0.508681	-2.223325
H	-5.708553	0.957807	-1.263409
H	-4.682462	-3.774130	-2.330312
H	-2.927194	-2.311329	-1.363824
H	-2.426659	-0.142283	-0.513718
H	-1.386804	-0.634775	1.270948
H	-0.279053	-1.155607	0.230249
H	-0.628075	-3.223964	1.754697
H	0.863601	-3.909245	2.427335
H	-0.116756	-4.892396	1.344954
H	-3.554659	-1.628620	4.888036
H	-4.009039	-2.853355	3.705577
H	-5.163493	-1.565113	4.119942
H	-5.307431	-0.440316	2.106554
H	-3.947808	0.122209	1.190565
H	7.050117	-3.110036	-1.390987
H	7.610809	-1.556344	-2.023112
H	6.500067	-2.540121	-2.989038
H	4.844756	-3.871263	-1.826800
H	3.228012	-3.628395	-1.236189
H	2.516111	-1.608762	-0.551847
H	3.700450	-0.303338	-0.291327
H	5.846869	-0.592183	-0.886756
H	5.183638	2.614894	2.485118
H	4.933380	3.645740	1.077140
H	6.566025	3.010210	1.429956
H	2.763242	2.114162	0.562406
H	1.539590	0.801471	-0.622652
H	-1.440436	1.570418	2.021556
H	-1.791676	3.894106	1.372561
H	-0.342958	1.514086	-1.856623
H	0.631628	2.970658	-1.715263
H	-2.023218	2.252628	-0.471527
H	0.545518	0.029913	2.935218
H	1.490619	-0.593855	1.550828
H	2.066606	0.811860	2.460497
C	-2.799829	4.007931	-2.114821
C	-0.868173	5.401242	-1.396413
H	-3.149819	4.807818	-2.762019
H	-3.391826	3.097135	-2.095295
H	0.190750	5.201223	-1.598829
H	-1.232264	6.098681	-2.155162
H	-0.905703	5.912433	-0.426471