82

C	5.59430700	-1.95573900	2.74822700
C	4.32134300	-1.92879500	1.95704000
N	3.12497600	-2.48933000	2.39086300
C	4.01219700	-1.36455300	0.74611800
C	2.16516200	-2.23910900	1.46023200
N	2.67422800	-1.55070400	0.45673600
C	-0.84146400	-3.98495300	-2.59322100
C	-0.72004600	-2.74929300	-1.73285000
O	0.42423100	-2.53664600	-1.23895100
O	-1.74182500	-2.00999500	-1.59331000
C	3.43758300	1.55933400	1.83251200
O	2.22329600	1.44068300	1.76370700
O	4.25739600	1.73198500	0.80151900
C	-0.44895100	-1.54287500	3.68775200
C	-1.24661000	-0.99591300	2.51989500
O	-1.98331200	-0.00591400	2.66560300
O	-1.05537200	-1.61932800	1.40497500
C	4.82297900	0.02735800	-3.43384400
C	3.67362200	-0.00534600	-2.45418200
O	2.92055100	-1.03114900	-2.54033400
O	3.49496400	0.93158800	-1.63310800
C	-7.33526000	-2.44080200	-0.08329700
C	-6.05587900	-1.74403300	0.22218400
N	-5.85591200	-1.00120700	1.37752400
C	-4.86353000	-1.67421100	-0.44795700
C	-4.58584100	-0.52656000	1.37476300
N	-3.96405500	-0.91952300	0.27731600
Zn	-1.93599700	-0.63996200	-0.06869900
Zn	1.46167200	-0.82127000	-1.17841000
C	0.15001500	1.65928800	-2.30685000
C	-0.71688100	2.50112400	-3.24579100
N	0.26704800	0.25052500	-2.74082300
O	-1.66427100	1.10003400	-0.83469400
O	0.47822500	0.66531700	-0.12068800
H	-7.58638900	-3.18903200	0.67838300
H	-8.17923600	-1.74396000	-0.15554700
H	-4.58107900	-2.12309400	-1.38780100
H	-6.53437500	-0.84851600	2.10842400
H	-4.11912200	0.03795800	2.16900300
H	6.36981700	-1.40897600	2.20722900
H	5.47429600	-1.48552700	3.73133900
H	5.96014600	-2.97688800	2.91116800
H	4.65603100	-0.80411400	0.08854900
H	1.12596700	-2.52923500	1.53884500
H	-0.25653900	-3.83801700	-3.50728600
H	-1.87864600	-4.19629000	-2.85807100
H	0.55755300	-1.11074000	3.65160200
H	-0.36204300	-2.63138500	3.63028900
H	4.43660200	-0.04149000	-4.45516500
H	5.41691200	0.93650500	-3.32685400
H	-0.76351300	3.54386700	-2.91852000
H	-1.73648100	2.10501600	-3.26473100
H	0.73413700	0.17746800	-3.64036100
H	-0.66824100	-0.14683500	-2.83004500
H	-0.40449900	-4.83973000	-2.07044700
H	5.46001200	-0.84879400	-3.27734300
H	-7.25321200	-2.95948100	-1.04101900
H	-0.90571100	-1.25401000	4.63661200
H	3.81724600	1.56608900	-0.07554900
H	1.03637300	1.15498500	0.52640300
H	1.17019800	2.05726900	-2.26193000
C	-0.41865000	1.61358900	-0.85789600
H	-0.31096700	2.48607500	-4.26376700
C	4.16397600	1.53374900	3.15446000
H	3.50144300	1.14062900	3.92505900
H	4.45845700	2.55310700	3.42858900
H	5.07732000	0.94052300	3.08371400
N	-0.27160700	2.90481500	-0.21505700
H	0.14578400	3.60250100	-0.82267300
C	-1.40943000	3.48334300	0.47669100
H	-2.32214700	2.94830800	0.17157300
C	-1.28326200	3.35939200	2.01045700
C	-1.59462300	4.93310300	0.02792600
H	-0.36890700	3.85057300	2.35918300
H	-2.14264300	3.79955300	2.52852900
H	-1.23761300	2.30232300	2.28126300
O	-0.89466200	5.42931800	-0.84194700
C	-2.68640900	5.74909800	0.69659900
H	-2.33658400	6.10106000	1.67401700
H	-2.91675500	6.61678800	0.07626400
H	-3.58876400	5.15497600	0.87022000
H	2.98232200	-2.99485400	3.25221400