82

C	5.30149700	-0.52928600	3.40248200 
C	4.10283600	-0.94648200	2.61323700
N	2.89546200	-1.32048200	3.18763300
C	3.88472100	-1.03127500	1.26330000
C	2.01060600	-1.59584800	2.19590100
N	2.58662500	-1.43342600	1.01993700
C	-1.08858400	-4.85113900	-0.41279900
C	-0.88455100	-3.34753500	-0.44728600
O	0.28872800	-2.94564400	-0.21856600
O	-1.89229500	-2.61386700	-0.69591900
C	2.71151100	2.42390100	1.23523700
O	1.94923600	1.59347600	1.73689600
O	2.42325500	3.11191300	0.15110000
C	-0.72818900	0.55296200	3.61637700
C	-1.45781500	0.36564500	2.30669600
O	-1.96575800	1.35064900	1.72519300
O	-1.45320400	-0.83051400	1.83105000
C	4.94644200	-2.21908100	-2.98036200
C	3.73807800	-1.78491500	-2.18640100
O	2.84749400	-2.67293200	-1.95223200
O	3.65121100	-0.60199900	-1.76705900
C	-7.54203600	-1.95709300	0.49877100
C	-6.22744400	-1.25746800	0.43811800
N	-5.99310800	-0.03318100	1.04945100
C	-5.02866700	-1.59595500	-0.13307100
C	-4.69898900	0.31505800	0.84284000
N	-4.09356700	-0.61367500	0.12461900
Zn	-2.02198700	-0.68872600	-0.07500600
Zn	1.58334200	-1.51690800	-0.83541400
C	0.76118300	0.91486800	-2.41493100
C	0.29662400	1.63214300	-3.68550900
N	0.78783300	-0.55554500	-2.61444300
O	-1.36959700	0.56514300	-1.40824800
O	0.49745100	0.27835900	-0.12510900
H	-7.83632200	-2.18441200	1.53048900
H	-8.34672800	-1.36565700	0.04539000
H	-4.76428600	-2.48073700	-0.69180400
H	-6.66497800	0.50333600	1.57719100
H	-4.20845100	1.18793700	1.24936100
H	6.11634200	-0.27279700	2.72184300
H	5.09724500	0.34952000	4.02571900
H	5.66096000	-1.32769500	4.06326700
H	4.54812700	-0.80778400	0.44215500
H	0.97577200	-1.86704400	2.35120200
H	-0.47503400	-5.31471400	-1.19126200
H	-2.13578700	-5.12014200	-0.55758400
H	0.31077900	0.81535200	3.38961800
H	-0.74212300	-0.36352900	4.21181400
H	5.46140000	-1.35900600	-3.41269200
H	5.64381700	-2.73882000	-2.31310500
H	0.50297500	2.70555800	-3.65197800
H	-0.77506600	1.47872600	-3.84534500
H	1.39707700	-0.80596900	-3.38786100
H	-0.16224100	-0.86072900	-2.82546300
H	-0.73383600	-5.23797600	0.54664600
H	4.66100800	-2.92655200	-3.76260900
H	-7.48144400	-2.90315400	-0.04366600
H	-1.16240000	1.37836600	4.18535800
H	1.45843700	2.89881900	-0.14604000
H	0.98365800	0.81149400	0.55284500
H	1.78086700	1.21540400	-2.15824900
C	-0.15150500	1.08087500	-1.15556600
H	0.83613900	1.23774200	-4.55433100
C	4.08660600	2.68876600	1.80386300
H	4.10995300	2.39861500	2.85393800
H	4.36365100	3.73848800	1.68661000
H	4.81074700	2.08179200	1.25109000
N	-0.12404700	2.45828800	-0.56423300
H	-0.54143600	2.34455800	0.36716100
C	-0.89262700	3.53615900	-1.21984800
H	-0.62090800	3.57991000	-2.27636200
C	-2.42760600	3.38332800	-1.10924800
C	-0.50184300	4.87282600	-0.57103700
H	-2.71659000	3.34596400	-0.05516400
H	-2.94257200	4.22320600	-1.58878300
H	-2.72854000	2.44917300	-1.58218700
O	-0.11445500	4.92889000	0.58005500
C	-0.63746600	6.11688900	-1.43111700
H	-1.54638400	6.10081200	-2.04008500
H	-0.61994900	7.00733400	-0.80082400
H	0.21300800	6.15920800	-2.12358500
H	2.68485300	-1.33128800	4.17395400