82

C	-5.18381400	0.69383800	-3.29278600
C	-4.00220100	0.00092400	-2.69068200
N	-2.75877700	-0.08891600	-3.30345200
C	-3.83176300	-0.60190500	-1.47336800
C	-1.89914300	-0.70792200	-2.45490600
N	-2.52470000	-1.03023200	-1.33714400
C	1.03090500	-4.87341400	-1.18307600
C	0.84995400	-3.52910200	-0.48874800
O	-0.32938200	-3.11398200	-0.34308900
O	1.90942200	-2.91756300	-0.13693700
C	-2.81147600	2.50301000	0.18452100
O	-2.01703800	1.79077100	-0.61994600
O	-2.59775800	2.66809700	1.37426700
C	0.85439300	1.66066700	-2.86921600
C	1.52185900	0.84188300	-1.80310500
O	2.09550400	1.40163700	-0.83816000
O	1.41240400	-0.43596500	-1.89569300
C	-5.08915500	-3.29625600	1.97905800
C	-3.96591500	-2.45572500	1.44577300
O	-2.97193200	-3.11406900	0.97232100
O	-4.02657200	-1.20558500	1.49715500
C	7.52825200	-1.97401700	-0.70195400
C	6.24145300	-1.30284900	-0.41509200
N	6.09329300	0.07380000	-0.33232300
C	4.98697600	-1.80847500	-0.22339200
C	4.78580500	0.35268200	-0.11122500
N	4.09992200	-0.77227800	-0.03980600
Zn	2.07605100	-0.91707300	-0.05951100
Zn	-1.63879900	-1.75787100	0.41987700
C	-0.64793200	-0.00301200	2.88145200
C	0.06486400	0.13493900	4.21951500
N	-1.44745500	-1.24424400	2.71558200
O	1.50110600	-0.32875800	1.80354100
O	-0.30134400	-0.05913000	0.52799000
H	7.93705400	-1.68172700	-1.67713200
H	8.29220100	-1.75512900	0.05441200
H	4.65117100	-2.83413600	-0.22117200
H	6.82918000	0.75651800	-0.43194700
H	4.35740900	1.34062400	-0.04930000
H	-6.04455700	0.58807500	-2.62870600
H	-4.99959100	1.76536900	-3.43493500
H	-5.46221500	0.27127200	-4.26581700
H	-4.53305600	-0.72088800	-0.66239200
H	-0.84684400	-0.86777900	-2.65159300
H	0.16279400	-5.51240100	-1.01525800
H	1.94528300	-5.36347500	-0.84322900
H	-0.13225500	1.96236300	-2.49966000
H	0.73615600	1.09280700	-3.79510400
H	-5.90161000	-2.67785300	2.36420200
H	-5.46984600	-3.95322900	1.19031000
H	0.64218500	1.06326400	4.23425400
H	0.76014000	-0.69503000	4.38033900
H	-2.43352300	-1.09356600	2.91453000
H	-1.09168900	-1.99863100	3.29707300
H	1.12250100	-4.69258100	-2.26004400
H	-4.71756400	-3.94937100	2.77561600
H	7.38309900	-3.05643800	-0.71765200
H	1.41467400	2.57874000	-3.05960100
H	-0.43119300	3.08221500	1.51718600
H	-1.35249600	1.28600100	-0.08994800
H	-1.32136400	0.84245400	2.71100600
C	0.27717000	-0.08010800	1.67519900
H	-0.65987200	0.15927100	5.03953800
C	-4.01874500	3.04161800	-0.55089800
H	-3.71896000	3.46944700	-1.51081200
H	-4.51794800	3.79294900	0.06084700
H	-4.70647300	2.21422200	-0.74490600
N	0.58686400	3.09600200	1.47077400
H	0.85116500	2.57217800	0.63565800
C	1.04615600	4.46603000	1.31097900
H	0.85166600	5.01923100	2.24291900
C	2.56620400	4.46778500	1.05818200
C	0.34145900	5.23898700	0.17710100
H	2.78130300	3.91804400	0.13625000
H	2.97479500	5.47946500	0.97230600
H	3.06354300	3.95702500	1.88706800
O	-0.23371500	4.66337400	-0.72944000
C	0.36368700	6.75852300	0.25454500
H	1.34005600	7.14272500	0.56542500
H	0.08019200	7.18543700	-0.70901300
H	-0.36245000	7.08434700	1.01005900
H	-2.51418600	0.27838200	-4.21051800