214

C	-3.286140	6.012057	3.852935
N	-3.043297	4.651867	3.414556
C	-3.141206	4.468268	1.962736
C	-4.574948	4.467838	1.419764
O	-4.848663	5.073228	0.377539
C	-2.380427	3.141309	1.673946
C	-1.605622	2.835351	2.978366
C	-1.732231	4.118057	3.802331
N	-5.541228	3.760987	2.074901
C	-6.889361	3.716112	1.488376
C	-7.707902	2.911575	2.506667
C	-6.662384	1.977985	3.136309
C	-5.417864	2.870940	3.244940
C	-2.517415	5.543129	-2.135111
C	-2.108627	6.017993	-3.535019
C	-2.046058	7.550938	-3.601864
C	-0.775215	5.388438	-3.961305
C	0.369239	0.884098	-5.800446
C	0.019944	-0.501834	-5.225628
C	1.057653	-0.961687	-4.201925
C	-1.388174	-0.507272	-4.615331
C	4.344942	4.862738	-3.819752
C	3.303544	4.101919	-3.286729
C	5.331348	4.228506	-4.579262
C	3.268125	2.720944	-3.461613
C	5.297257	2.850580	-4.776722
C	4.277719	2.083818	-4.197348
O	4.292945	0.736934	-4.380507
C	0.804480	1.899997	7.618448
C	0.708678	1.777606	6.111436
O	-0.353754	1.503685	5.557934
N	1.880964	1.956567	5.455435
C	2.075855	1.566678	4.074961
C	3.491093	0.984185	3.974282
O	4.408894	1.568069	4.564439
N	3.641171	-0.136409	3.240725
C	4.950264	-0.775587	3.152573
C	5.801846	-0.236547	2.000443
O	6.999703	0.012328	2.133349
C	4.835225	-2.339303	3.013242
O	3.721966	-2.854866	3.705320
C	6.101456	-2.992127	3.560578
N	5.123601	-0.114927	0.826546
C	5.800571	0.309556	-0.379273
C	5.781961	1.841354	-0.586104
O	6.491004	2.371055	-1.437569
C	5.287457	-0.438296	-1.613301
O	3.918911	-0.181652	-1.904575
N	4.964084	2.522329	0.257492
C	5.028935	3.962834	0.428556
C	3.799731	4.480755	1.192235
C	2.559216	4.789198	0.332364
C	1.286557	4.816437	1.187128
C	2.731127	6.122443	-0.411594
C	4.059729	-4.931720	-4.261627
C	3.260458	-3.849567	-3.892036
C	4.772378	-5.611244	-3.267928
C	3.171154	-3.441371	-2.562400
C	4.697755	-5.212506	-1.934780
C	3.901311	-4.112780	-1.563607
O	3.870909	-3.751946	-0.265784
C	-5.296892	0.026917	-3.774374
C	-6.340637	-0.712536	-2.954421
O	-6.064926	-1.486986	-2.045455
C	-5.167092	1.515325	-3.351663
C	-4.677889	1.650106	-1.902171
C	-4.254670	2.278313	-4.320793
N	-7.638400	-0.416170	-3.294724
C	-8.759307	-0.888282	-2.513109
C	-4.984115	-4.787805	-1.570223
C	-3.928551	-4.144911	-2.448333
S	-3.305426	-5.408923	-3.644897
C	-1.916080	-4.508622	-4.415175
C	1.065325	-5.456865	1.100968
C	0.062266	-5.334794	2.237852
O	-0.703711	-6.269545	2.526643
C	0.393280	-5.417903	-0.278505
S	-0.678146	-3.950573	-0.607453
N	0.041566	-4.142915	2.874964
C	-0.843228	-3.915862	4.000132
C	-2.350296	-3.906396	3.704665
O	-3.157844	-3.997894	4.625930
N	-2.712206	-3.788539	2.399218
C	-4.090713	-3.950931	1.993708
C	-4.593647	-5.401981	1.897711
O	-5.791340	-5.625762	1.735411
N	-3.648577	-6.372594	1.947027
C	-0.432602	1.062503	-1.000904
C	0.562060	0.238539	-0.571394
C	0.535022	-0.663962	0.543588
H	-3.065951	2.329360	1.416458
H	-1.712906	3.261374	0.818817
H	-2.042291	1.997414	3.524310
H	-0.565834	2.571059	2.788524
H	-1.689518	3.930823	4.879560
H	-0.921647	4.829518	3.547705
H	-2.650581	5.295807	1.421490
H	-8.541489	2.377756	2.041153
H	-8.124664	3.579797	3.270571
H	-6.460106	1.134198	2.467271
H	-6.965578	1.570335	4.104752
H	-4.488564	2.303152	3.222616
H	-5.418955	3.451450	4.174378
H	-6.854430	3.221873	0.508782
H	-2.590263	4.452472	-2.085898
H	-1.770420	5.851234	-1.392176
H	-2.880188	5.685156	-4.246493
H	-1.791322	7.900899	-4.609344
H	-3.004597	8.001289	-3.319282
H	-1.283806	7.938007	-2.913950
H	-0.471817	5.709243	-4.964704
H	-0.835162	4.295422	-3.963493
H	0.026942	5.671667	-3.268993
H	0.026313	-1.214415	-6.066114
H	0.861279	-1.990513	-3.883492
H	2.072373	-0.908971	-4.607568
H	1.016562	-0.338178	-3.304195
H	-1.431366	0.164933	-3.750537
H	-1.659354	-1.505035	-4.256168
H	-2.143284	-0.190496	-5.345412
H	0.370162	1.644167	-5.010245
H	0.780978	0.894665	8.052035
H	1.295834	0.859630	3.783080
H	2.011498	2.431335	3.400638
H	4.749208	-2.576695	1.945123
H	6.090982	-4.064686	3.345487
H	6.996848	-2.542951	3.121215
H	6.142523	-2.859473	4.647719
H	2.958657	-2.711915	3.096301
H	5.492096	-0.527766	4.068585
H	5.864361	-0.098915	-2.476604
H	5.459280	-1.513332	-1.472860
H	3.345919	-0.632044	-1.224103
H	6.864903	0.071052	-0.266847
H	3.548373	3.750982	1.973461
H	4.082339	5.394527	1.734348
H	2.451998	3.984114	-0.405208
H	1.882915	6.320131	-1.077121
H	3.640443	6.137010	-1.019776
H	2.790127	6.954298	0.302998
H	0.410073	5.083749	0.586652
H	1.091911	3.837304	1.633854
H	1.370921	5.551375	1.998591
H	5.115290	4.412975	-0.564871
H	2.697999	-3.308171	-4.646369
H	5.399320	-6.460281	-3.533264
H	2.554444	-2.595623	-2.283818
H	5.256197	-5.728305	-1.159256
H	3.382668	-2.871105	-0.113977
H	-6.169612	1.967711	-3.414585
H	-5.311365	1.086855	-1.210003
H	-4.672322	2.698390	-1.585141
H	-3.659298	1.258822	-1.800413
H	-4.619713	2.215443	-5.353116
H	-4.198283	3.336872	-4.046004
H	-3.237624	1.874695	-4.299844
H	-4.342000	-0.485445	-3.634549
H	-9.212812	-0.087934	-1.913238
H	-5.442323	-4.037982	-0.920489
H	-4.561466	-5.578121	-0.945378
H	-4.348110	-3.301276	-3.001785
H	-3.080186	-3.791888	-1.859921
H	-1.413718	-5.206863	-5.089501
H	-2.267004	-3.650755	-4.995118
H	-1.206450	-4.178285	-3.652744
H	1.151651	-5.481542	-1.061628
H	-0.292523	-6.262529	-0.388365
H	0.172954	-2.928192	-0.304269
H	1.829629	-4.677381	1.162526
H	-0.706261	-4.688358	4.763296
H	-0.581600	-2.952902	4.447459
H	-4.234576	-3.485997	1.015656
H	-4.743845	-3.448103	2.709997
H	-2.671533	-6.207760	2.182721
H	2.509965	4.584957	-2.726668
H	6.145115	4.809203	-5.007566
H	2.475928	2.127269	-3.017956
H	6.073160	2.339841	-5.338182
H	3.917980	0.310163	-3.572047
H	-1.417608	1.073215	-0.544059
H	4.371505	5.939043	-3.671871
H	4.125864	-5.242447	-5.300404
H	-3.982888	-7.323384	1.922667
H	-5.788471	-5.226790	-2.171772
H	-9.533822	-1.324630	-3.154218
H	-8.379795	-1.656610	-1.838306
H	-7.795676	0.297811	-3.989121
H	-3.220864	6.066335	4.945287
H	-2.563615	6.739310	3.431518
H	-4.291966	6.331114	3.558479
H	-0.069491	2.438958	7.991327
H	1.714564	2.402060	7.960225
H	-7.266835	4.729099	1.319506
H	-1.995417	-3.745011	1.681271
H	0.664251	-3.371202	2.570563
H	2.745094	2.124863	5.955790
H	2.821150	-0.672330	2.932965
H	4.183940	-0.536373	0.731534
H	4.540258	1.971715	0.992211
H	5.944318	4.232300	0.977093
H	-5.557601	-0.028724	-4.839997
H	1.563720	-6.426928	1.206728
C	1.679043	-1.396203	0.920662
O	1.729377	-2.041008	2.063077
O	2.765611	-1.438603	0.147513
C	-0.691363	-0.662265	1.421481
H	-0.536016	-1.264731	2.316622
H	-0.955604	0.355072	1.745717
H	-1.582239	-1.051319	0.903885
H	1.366585	0.886431	-6.252776
H	-0.355360	1.194758	-6.563366
H	-3.481163	5.948711	-1.815204
H	-0.270294	1.751492	-1.824940
H	1.512745	0.305803	-1.096011