81

C       -0.518215   -1.274098    2.104454  
N        3.570314   -1.145343    0.099144  
C        3.952094   -0.220822   -0.958892  
C        4.056891    1.227003   -0.471710  
O        4.618537    2.084342   -1.167515  
C        2.886015   -0.258172   -2.126667  
O        2.319814   -1.546070   -2.287144  
C        3.522958    0.139829   -3.452990  
C       -2.701213    5.126753   -1.375807  
C       -2.991723    4.003446   -0.598721  
C       -1.537609    5.129922   -2.150957  
C       -2.144960    2.897546   -0.587923  
C       -0.680764    4.032812   -2.154610  
C       -0.974419    2.899660   -1.373255  
O       -0.122062    1.863323   -1.413099  
N        3.400668    1.518482    0.672910 
C        3.183044    2.891887    1.064496  
C        1.987781    3.052192    2.005728  
O        2.245111    2.525223    3.287698  
C        3.660460   -3.001191    1.645669  
C        4.332260   -2.181177    0.535410  
O        5.450401   -2.462459    0.097027  
C       -2.131700   -0.813420   -2.921662  
C       -2.142452   -2.319549   -3.168663  
O       -2.852309   -2.835468   -4.040131  
C       -3.534801   -0.260168   -2.666351  
S       -4.285229   -0.810646   -1.069584  
N       -1.306032   -3.031659   -2.381870  
C       -1.215479   -4.469010   -2.505873  
H        2.098703    0.468250   -1.877536  
H        2.757889    0.218247   -4.232265  
H        4.043476    1.094163   -3.344658 
H        4.244566   -0.628149   -3.756638  
H        1.654481   -1.673265   -1.586357  
H        4.925754   -0.547502   -1.330076  
H        2.670922   -1.018866    0.569145  
H       -1.292927    5.998159   -2.760160  
H       -3.891002    3.982944    0.012870  
H        0.227398    4.024065   -2.749575  
H       -2.364613    2.029878    0.023808  
H       -0.441870    1.108016   -0.828422  
H        1.781828    4.134992    2.081770  
H        1.103242    2.590129    1.546287  
H        1.615788    1.775087    3.433177  
H        3.030428    3.487403    0.156677  
H        2.979923    0.800116    1.265238  
H        3.127608   -2.351255    2.342119  
H        4.429334   -3.583475    2.158389  
H       -3.519046    0.832388   -2.683123  
H       -4.217675   -0.617737   -3.441890  
H       -3.237673   -0.456242   -0.289050  
H       -1.460297   -0.536477   -2.108314  
H       -0.819675   -4.764654   -3.485814  
H       -0.546499   -4.842973   -1.727841  
H       -0.779505   -2.563980   -1.636513  
C        0.610145   -0.278620    2.619337  
O        1.746402   -0.460871    2.092885 
O        0.325308    0.596348    3.468433  
C       -0.488675   -1.045440    0.550141  
O        0.121338   -1.879914   -0.167842  
O       -1.065516    0.009947    0.137040  
H       -3.367292    5.986040   -1.376805  
H        4.072934    3.302921    1.566747  
H        2.935363   -3.690436    1.199801  
H       -2.199616   -4.940433   -2.394415  
H       -1.749217   -0.346222   -3.839834  
C       -0.059484   -2.705702    2.426726  
H       -0.066115   -2.883680    3.508709  
H       -0.696669   -3.452184    1.942644  
H        0.948564   -2.845681    2.049896  
C       -1.903731   -0.963420    2.673003  
C       -2.758752   -1.979293    3.126310  
C       -2.389222    0.357198    2.739572  
C       -4.035883   -1.701927    3.624795  
H       -2.434284   -3.013077    3.091532  
C       -3.660475    0.637336    3.234446  
H       -1.748145    1.162348    2.414230  
C       -4.496121   -0.389564    3.682459  
H       -4.668620   -2.520894    3.961448  
H       -4.000623    1.669856    3.271640  
H       -5.489832   -0.167122    4.065605 