220

C	2.440019	6.998257	-3.306819
N	2.105689	5.593752	-3.447832
C	2.129291	4.846560	-2.180196
C	3.549167	4.609466	-1.648841
O	3.825675	4.872663	-0.474088
C	1.290721	3.565335	-2.458487
C	0.561767	3.851239	-3.797050
C	0.785349	5.348238	-4.028953
N	4.503534	4.116914	-2.489068
C	5.853542	3.878230	-1.958151
C	6.664310	3.458758	-3.191555
C	5.613113	2.787369	-4.089239
C	4.367641	3.661700	-3.884303
C	1.369722	5.960681	1.884112
C	0.617653	5.611960	3.174191
C	0.183950	6.878639	3.926104
C	-0.586113	4.707646	2.883407
C	-0.661816	1.030580	5.762383
C	-0.089871	-0.298658	5.233944
C	0.349223	-0.196027	3.771741
C	1.043038	-0.788779	6.147659
C	-5.266087	4.207297	3.696446
C	-4.216915	3.473893	3.141650
C	-6.148356	3.570733	4.573919
C	-4.068489	2.117187	3.416593
C	-6.003404	2.217974	4.869833
C	-4.974471	1.473153	4.274219
O	-4.883063	0.152654	4.558605
C	-1.378527	1.435619	-7.676754
C	-1.223158	1.337857	-6.166470
O	-0.134486	1.115586	-5.643854
N	-2.383386	1.494226	-5.471091
C	-2.544934	1.032509	-4.104532
C	-3.823758	0.180887	-4.073327
O	-4.753742	0.464646	-4.836935
N	-3.835683	-0.821254	-3.176463
C	-4.977224	-1.720138	-3.052811
C	-5.864044	-1.319272	-1.876980
O	-7.083977	-1.227337	-1.989785
C	-4.520677	-3.215263	-2.894086
O	-3.385883	-3.502954	-3.688385
C	-5.652181	-4.148806	-3.310500
N	-5.199637	-1.065627	-0.704393
C	-5.966759	-0.655859	0.448993
C	-6.207416	0.862588	0.558995
O	-7.027725	1.304180	1.358734
C	-5.520419	-1.231401	1.790751
O	-4.216405	-0.820881	2.173804
N	-5.498645	1.641065	-0.294753
C	-5.826374	3.040745	-0.504863
C	-4.708266	3.726970	-1.305683
C	-3.555603	4.315985	-0.472213
C	-2.322391	4.578084	-1.344771
C	-3.995722	5.607663	0.233319
C	-3.337011	-5.376441	4.495564
C	-2.330699	-4.410423	4.397837
C	-4.208536	-5.546960	3.415646
C	-2.215280	-3.604378	3.267344
C	-4.102189	-4.750269	2.278847
C	-3.121276	-3.730935	2.183612
O	-3.110717	-2.906330	1.145943
C	5.049897	1.055717	3.683813
C	6.552397	0.853196	3.735277
O	7.174830	0.842590	4.795764
C	4.697187	2.420934	4.328672
C	5.272551	3.598315	3.526291
C	3.186761	2.576966	4.520572
N	7.168359	0.752481	2.521256
C	8.605664	0.684598	2.404952
C	5.530514	-3.825600	1.664063
C	4.389718	-3.334760	2.533698
S	4.026091	-4.604366	3.826789
C	2.277144	-4.219147	4.185771
C	-0.343874	-5.601467	-0.888686
C	0.724246	-5.937263	-1.921356
O	1.497005	-6.889079	-1.804892
C	0.280487	-5.089529	0.419216
S	1.453080	-3.671692	0.248289
N	0.786214	-5.076291	-2.984989
C	1.842393	-5.144162	-3.971695
C	3.149576	-4.393105	-3.654317
O	4.020781	-4.292985	-4.516068
N	3.266796	-3.915157	-2.391338
C	4.478239	-3.289608	-1.914422
C	5.636874	-4.264929	-1.654457
O	6.791422	-3.864559	-1.546522
N	5.279974	-5.568216	-1.508059
C	3.391060	0.751657	-0.872838
C	3.023119	1.576118	0.191765
C	1.737105	1.433357	0.721435
C	0.841298	0.496448	0.212039
C	1.184096	-0.335753	-0.878017
C	2.490329	-0.172628	-1.400575
C	0.284725	-1.339336	-1.496894
H	1.905563	2.665366	-2.514463
H	0.594931	3.400886	-1.634390
H	0.991611	3.260450	-4.608846
H	-0.499862	3.598927	-3.756719
H	0.773726	5.636898	-5.087227
H	0.002340	5.942364	-3.515005
H	1.644785	5.427584	-1.377320
H	7.499754	2.800727	-2.936514
H	7.076552	4.343977	-3.691668
H	5.414405	1.768456	-3.739339
H	5.909822	2.727674	-5.140389
H	3.440486	3.109641	-4.036737
H	4.355313	4.516830	-4.569672
H	5.823206	3.084576	-1.200478
H	1.750639	5.074665	1.369429
H	0.711401	6.495551	1.186211
H	1.306416	5.055932	3.826045
H	-0.332378	6.632537	4.860990
H	1.043968	7.512579	4.172159
H	-0.504987	7.476859	3.315746
H	-1.111061	4.415097	3.798424
H	-0.282489	3.792529	2.364621
H	-1.307350	5.227071	2.239637
H	-0.898204	-1.042696	5.285162
H	0.735904	-1.147889	3.394311
H	-0.488876	0.086295	3.127263
H	1.136112	0.554560	3.644121
H	1.413683	-1.770871	5.839282
H	0.705006	-0.873142	7.187482
H	1.893935	-0.096114	6.134008
H	0.100390	1.820331	5.739924
H	-1.440044	0.422699	-8.089030
H	-1.654348	0.478751	-3.800038
H	-2.669716	1.875052	-3.410817
H	-4.277146	-3.383863	-1.836848
H	-5.384262	-5.185800	-3.088889
H	-6.581365	-3.898731	-2.789915
H	-5.825074	-4.060689	-4.388729
H	-2.626804	-3.178359	-3.169242
H	-5.581176	-1.604585	-3.954081
H	-6.228394	-0.862174	2.537372
H	-5.577416	-2.323957	1.753522
H	-3.617298	-1.546240	1.826748
H	-6.982303	-1.037352	0.285486
H	-4.315347	3.010067	-2.039347
H	-5.147264	4.537217	-1.905297
H	-3.281679	3.575499	0.289784
H	-3.199216	6.002619	0.873573
H	-4.877318	5.450296	0.861463
H	-4.240871	6.382042	-0.505616
H	-1.508631	5.021608	-0.760870
H	-1.944795	3.651054	-1.787523
H	-2.558672	5.269334	-2.164524
H	-5.976910	3.500920	0.475379
H	-1.630009	-4.274064	5.219496
H	-4.987534	-6.306388	3.463329
H	-1.440973	-2.844562	3.204361
H	-4.785140	-4.873787	1.442336
H	-2.011840	-2.082755	0.624155
H	5.175568	2.417558	5.316219
H	6.360331	3.525547	3.424778
H	5.050514	4.548667	4.024583
H	4.840448	3.650603	2.519742
H	2.775035	1.771293	5.135256
H	2.953231	3.527575	5.013832
H	2.662075	2.563600	3.559349
H	4.653244	0.997673	2.663396
H	8.925159	-0.222304	1.878652
H	5.828589	-3.065279	0.935977
H	5.242470	-4.725414	1.117116
H	4.638054	-2.388202	3.025898
H	3.479663	-3.200056	1.944626
H	1.932419	-4.935406	4.935498
H	2.173853	-3.208735	4.586087
H	1.669184	-4.311373	3.283837
H	-0.517659	-4.813571	1.111909
H	0.865719	-5.895038	0.871602
H	0.751303	-2.579396	-0.690090
H	-1.052376	-4.859836	-1.272799
H	2.113603	-6.195751	-4.100577
H	1.481762	-4.769389	-4.933193
H	4.250034	-2.773323	-0.978637
H	4.852294	-2.557395	-2.634672
H	4.318285	-5.869653	-1.574136
H	-3.503051	3.959911	2.486335
H	-6.965912	4.130148	5.023244
H	-3.283329	1.537128	2.944307
H	-6.695890	1.705848	5.530661
H	-4.420392	-0.298441	3.806454
H	4.385581	0.830058	-1.308821
H	3.697724	2.337661	0.569707
H	1.419030	2.070149	1.543349
H	-0.142514	0.403414	0.650474
H	2.807379	-0.782258	-2.238646
H	-5.377320	5.265156	3.474358
H	-3.426581	-5.995393	5.384374
H	6.001673	-6.235845	-1.289914
H	6.419755	-4.062829	2.260723
H	9.008782	1.555274	1.871991
H	9.007493	0.669640	3.418665
H	6.599962	0.754887	1.688392
H	2.434104	7.482025	-4.290148
H	1.735232	7.546569	-2.650969
H	3.443484	7.105874	-2.882774
H	-0.491342	1.913640	-8.096658
H	-2.272422	1.987085	-7.982594
H	6.232911	4.776594	-1.462721
H	2.517295	-4.020375	-1.695741
H	0.206879	-4.249208	-2.959749
H	-3.267302	1.500634	-5.970870
H	-2.976875	-1.099055	-2.686136
H	-4.235503	-1.361320	-0.585493
H	-4.955768	1.158492	-0.997610
H	-6.781399	3.124283	-1.044253
H	4.583759	0.251844	4.264237
H	-0.902822	-6.520482	-0.676084
C	-1.040206	-1.628759	-1.014708
O	-1.920647	-2.211511	-1.727425
O	-1.287299	-1.420892	0.273575
C	0.504615	-1.566256	-2.990833
H	-0.330170	-2.132191	-3.409942
H	1.427431	-2.117504	-3.199254
H	0.567999	-0.625825	-3.554736
H	-1.511781	1.368802	5.160729
H	-1.007193	0.929321	6.797750
H	2.230974	6.608530	2.083177