78

C         -3.754341    0.285691   -2.807726  
C         -5.046147    0.800070   -2.874675  
C         -5.554690    1.619784   -1.864659  
C         -4.716268    1.900981   -0.778484  
C         -3.428137    1.384387   -0.695070  
C         -2.872911    0.547940   -1.713782  
C         -1.520252    0.019596   -1.719755  
N          0.726609    3.241760    0.535019  
C          1.960385    2.969427    1.264014  
C          3.181464    2.784071    0.354861  
O          4.301090    3.202030    0.665971  
C          1.817767    1.685092    2.163104  
O          0.517742    1.537671    2.687363  
C          2.803942    1.756025    3.325768  
C          3.428179   -5.114724   -1.087363  
C          2.884269   -4.113520   -1.895359  
C          3.401252   -4.944298    0.300370  
C          2.325998   -2.962182   -1.345136  
C          2.848344   -3.799240    0.867536  
C          2.304411   -2.782157    0.054391  
O          1.812513   -1.693006    0.654529  
N          2.930794    2.046845   -0.752368  
C          3.984642    1.591219   -1.630364  
C          3.720706    0.167026   -2.123987  
O          2.545746    0.061176   -2.902159 
C         -0.959138    4.687044   -0.503871  
C          0.407913    4.507201    0.157076  
O          1.153868    5.476162    0.322688  
C         -1.203731   -2.557390    2.075723  
C         -2.428169   -1.929941    2.733779  
O         -3.124022   -2.568922    3.532387  
C         -1.567157   -3.705423    1.126990  
S         -2.685559   -3.257797   -0.275387  
N         -2.669744   -0.647480    2.370655  
C         -3.840887    0.065954    2.833107  
H          2.065313    0.815700    1.540197  
H          2.807193    0.807550    3.871840  
H          3.814103    1.976727    2.969080  
H          2.496995    2.549758    4.017060  
H         -0.015096    1.133420    1.961891  
H          2.178333    3.841155    1.887585  
H          0.034215    2.488459    0.468487  
H          3.816475   -5.712649    0.950623  
H          2.894723   -4.223602   -2.977766  
H          2.828161   -3.656139    1.943984  
H          1.937651   -2.181451   -1.987845  
H          1.362017   -1.008009    0.015023  
H          4.564114   -0.139604   -2.759344  
H          3.697855   -0.512405   -1.259805  
H          1.771262    0.061231   -2.282290 
H          4.930878    1.645786   -1.080475  
H          2.010289    1.617360   -0.854102  
H         -1.527469    3.759813   -0.609648  
H         -0.808997    5.129578   -1.493143  
H         -0.653022   -4.153119    0.728741  
H         -2.120294   -4.471633    1.678251  
H         -2.078941   -2.097475   -0.664108  
H         -0.597122   -1.812629    1.556049  
H         -3.569434    0.901173    3.493353  
H         -4.400765    0.464763    1.980956  
H         -2.083707   -0.199067    1.657289  
H         -3.412209   -0.338317   -3.625453  
H         -5.665183    0.554912   -3.738160  
H         -6.563897    2.022296   -1.918165 
H         -5.072895    2.543515    0.026600  
H         -2.805783    1.620002    0.156690  
C         -0.560422    0.264111   -0.698056  
O         -0.883579    0.769428    0.462553  
O          0.722371   -0.020937   -0.906664  
H          3.860715   -6.010068   -1.527206  
H          4.072937    2.254257   -2.505405  
H         -1.538706    5.401338    0.089397  
H         -4.464203   -0.636506    3.389737  
H         -0.582431   -2.973834    2.878530  
C         -1.063315   -0.679727   -2.984549  
H         -1.666241   -1.572564   -3.215812  
H         -1.119112   -0.034404   -3.877848  
H         -0.030472   -1.009368   -2.888374