81

C        3.664436    1.238547   -2.441722  
C        4.886293    1.911006   -2.390175  
C        5.030554    3.048778   -1.595492  
C        3.935644    3.502748   -0.857936  
C        2.715885    2.826514   -0.910865  
C        2.556700    1.675850   -1.698743  
C        1.199725    0.993460   -1.874985  
N        2.308864   -1.846168    1.432420  
C        1.365873   -2.646910    2.198746  
C        0.685801   -3.736485    1.363769  
O        0.055548   -4.649174    1.916657  
C        0.229254   -1.731969    2.808824  
O        0.706319   -0.437903    3.127285  
C       -0.336823   -2.347687    4.082883  
C       -6.065615   -1.262321   -1.787826  
C       -5.008159   -0.512927   -2.309430  
C       -5.906202   -1.877638   -0.542373  
C       -3.812155   -0.370293   -1.609482  
C       -4.719236   -1.743372    0.172546  
C       -3.655726   -0.984002   -0.350654  
O       -2.534077   -0.877188    0.378902  
N        0.714556   -3.565547    0.024314  
C       -0.139001   -4.351323   -0.835199  
C       -0.439881   -3.659888   -2.167587  
O        0.676537   -3.646359   -3.029437  
C        4.383230   -0.827017    0.721320  
C        3.639709   -1.751435    1.694284  
O        4.213249   -2.340798    2.614260  
C       -2.524795    2.430388    1.651092  
C       -1.615137    3.454426    2.324458  
O       -2.064305    4.435324    2.928438  
C       -3.516840    3.076073    0.683377  
S       -2.735616    3.756584   -0.849000  
N       -0.293332    3.186348    2.231071  
C        0.686555    4.054689    2.845704  
H       -0.574148   -1.660198    2.060334  
H       -1.192107   -1.763714    4.438795  
H       -0.642635   -3.379003    3.892903  
H        0.432379   -2.340732    4.864524  
H        0.803226    0.053152    2.290877  
H        1.935240   -3.116855    3.004002 
H        1.974950   -1.320392    0.621293  
H       -6.716561   -2.469938   -0.121292  
H       -5.110631   -0.030639   -3.279088  
H       -4.583086   -2.217627    1.139668  
H       -2.985134    0.201727   -2.015855  
H       -1.868908   -0.259432   -0.058071  
H       -1.264970   -4.222300   -2.640415  
H       -0.814913   -2.645627   -1.973842  
H        0.935934   -2.701971   -3.167989  
H       -1.072683   -4.553405   -0.296914  
H        1.271740   -2.836565   -0.426833  
H        4.094312   -1.040447   -0.309824  
H        5.457040   -0.959952    0.866131  
H       -4.281125    2.353570    0.387084  
H       -4.000940    3.929548    1.165783  
H       -2.029101    2.638403   -1.146962  
H       -1.950531    1.652697    1.147631  
H        0.582478    4.067358    3.937908  
H        1.683288    3.688682    2.590785  
H        0.031059    2.391112    1.671478  
H        3.560999    0.358662   -3.070050  
H        5.727773    1.540465   -2.971786  
H        5.982924    3.572463   -1.548389  
H        4.029470    4.388199   -0.232729  
H        1.878881    3.182253   -0.322266  
C        1.398826   -0.540890   -2.186493  
O        1.848709   -1.234253   -1.231163  
O        1.099648   -0.956187   -3.331552  
C        0.304095    0.985531   -0.597647  
O        0.825418    1.120714    0.540280  
O       -0.936727    0.791700   -0.822263  
H       -6.994701   -1.368988   -2.342124  
H        0.315763   -5.330159   -1.055938  
H        4.112717    0.215906    0.914545  
H        0.578186    5.087895    2.493991  
H       -3.102362    1.947034    2.451009  
C        0.467334    1.683932   -3.044079  
H       -0.490098    1.195523   -3.219281  
H        0.295605    2.744518   -2.823200  
H        1.065314    1.607290   -3.955665 
 