78 

C          1.300368    2.793653    1.853795  
C          1.405815    1.302526    1.542694  
N         -3.226838    1.203066    0.768036  
C         -3.846794    0.400989   -0.282065 
C         -4.051197   -1.067898    0.101418  
O         -4.991222   -1.732593   -0.343595  
C         -3.006791    0.447315   -1.611040  
O         -2.415470    1.711085   -1.817066  
C         -3.900053    0.133400   -2.808038  
C          2.629608   -4.814929   -2.167895  
C          2.868991   -3.825720   -1.210213  
C          1.497186   -4.704115   -2.980301  
C          1.994465   -2.753250   -1.046954  
C          0.610984   -3.640671   -2.826953  
C          0.839774   -2.655284   -1.847382  
O         -0.064336   -1.669961   -1.716637  
N         -3.065568   -1.583415    0.871927  
C         -2.925629   -3.001195    1.114752  
C         -1.458707   -3.427048    1.008123  
O         -0.648890   -2.783932    1.972226  
C         -3.271769    2.712219    2.705712  
C         -3.992925    1.773962    1.736716  
O         -5.202225    1.566765    1.857368  
C          2.027182    1.333210   -2.699416  
C          1.767080    2.818107   -2.916698  
O          2.333842    3.460387   -3.807283  
C          3.408713    1.047884   -2.080597  
S          3.770796    1.813052   -0.437475  
N          0.847744    3.360396   -2.074135  
C          0.563960    4.776417   -2.076394  
H         -2.226760   -0.321622   -1.537949  
H         -3.288592    0.036190   -3.710298  
H         -4.465417   -0.787553   -2.644426  
H         -4.608136    0.956596   -2.960866  
H         -1.583173    1.699529   -1.294451  
H         -4.845449    0.808857   -0.463036  
H         -2.251318    1.488534    0.636586  
H          1.295935   -5.458917   -3.738590  
H          3.749808   -3.884061   -0.575130  
H         -0.278710   -3.552882   -3.443496  
H          2.187386   -1.989157   -0.302829  
H          0.041316   -1.145675   -0.848597  
H         -1.398659   -4.510369    1.188118 
H         -1.107333   -3.236612   -0.012600  
H         -0.323402   -1.937261    1.594617  
H         -3.547442   -3.528649    0.384047  
H         -2.284132   -0.986251    1.118243  
H         -2.211557    2.845502    2.475404  
H         -3.371311    2.312548    3.719271  
H          3.536701   -0.038433   -2.019370  
H          4.174997    1.432818   -2.762164  
H          2.493370    1.398509    0.483719  
H          1.238408    0.886414   -2.088808  
H         -0.505432    4.949339   -1.913353  
H          1.127041    5.311881   -1.298313  
H          0.503090    2.796089   -1.295488  
C          0.316760    0.781396    0.708105  
O         -0.395074    1.624891    0.035036  
O          0.104610   -0.495156    0.576031  
H          3.316496   -5.649083   -2.286490  
H         -3.296823   -3.260002    2.118382  
H         -3.775023    3.683306    2.682510  
H          0.857739    5.177677   -3.048617  
H          1.987259    0.855758   -3.687223  
C          2.056752    0.488832    2.595711  
C          2.189900   -0.923177    2.554479  
C          2.670818    1.117619    3.710885  
C          2.855310   -1.635319    3.547293  
H          1.740513   -1.465286    1.737454  
C          3.343418    0.402244    4.700663  
H          2.621346    2.195537    3.809308  
C          3.443971   -0.987365    4.637391  
H          2.909891   -2.719194    3.463472  
H          3.790979    0.944926    5.533063  
H          3.965514   -1.548712    5.409950  
H          0.743732    2.997047    2.784265  
H          2.290202    3.255314    1.958174  
H          0.783804    3.303495    1.042955 