78

C         -1.343636   -1.464447    1.552400  
N          3.292279   -1.240674    0.801933  
C          3.954187   -0.377388   -0.172188  
C          4.180485    1.061071    0.313388  
O          5.035179    1.788624   -0.201959  
C          3.129223   -0.287744   -1.514869  
O          2.456421   -1.490837   -1.802180  
C          4.057420    0.034363   -2.682623  
C         -2.424221    5.096579   -1.717667  
C         -2.662005    4.124997   -0.740107  
C         -1.352628    4.912221   -2.597115  
C         -1.849661    2.998849   -0.624515  
C         -0.528930    3.793826   -2.494981  
C         -0.756470    2.820023   -1.500006  
O          0.078001    1.776697   -1.424446  
N          3.300275    1.484261    1.248625  
C          3.050833    2.877535    1.549416  
C          1.539240    3.135765    1.525561  
O          0.872178    2.258132    2.410070  
C          3.263433   -2.975884    2.542570  
C          4.033517   -1.980956    1.673094  
O          5.256931   -1.876026    1.786576  
C         -1.867881   -0.943268   -2.817845  
C         -1.518215   -2.400767   -3.107320  
O         -1.983554   -2.995649   -4.087272  
C         -3.358375   -0.744934   -2.524649  
S         -4.002850   -1.647607   -1.046919  
N         -0.664868   -2.973059   -2.230134  
C         -0.254871   -4.349554   -2.393581  
H          2.400579    0.527606   -1.401401  
H          3.465765    0.212855   -3.586095  
H          4.670464    0.910786   -2.460303  
H          4.717054   -0.821606   -2.870186  
H          1.627938   -1.466061   -1.268019  
H          4.941997   -0.801944   -0.371942  
H          2.299464   -1.462244    0.644538  
H         -1.150728    5.652193   -3.370213  
H         -3.494667    4.242325   -0.049641  
H          0.312110    3.649202   -3.166951 
H         -2.035366    2.249696    0.137852  
H         -0.067258    1.191494   -0.565793  
H          1.352370    4.176423    1.834599  
H          1.177768    3.019012    0.498145  
H          0.439953    1.548546    1.867165  
H          3.581434    3.485175    0.810064  
H          2.606518    0.827600    1.583150  
H          2.193457   -3.006263    2.322007  
H          3.406204   -2.706162    3.593319  
H         -3.571739    0.321294   -2.410390  
H         -3.946657   -1.131313   -3.362076  
H         -3.007214   -1.319890   -0.170527  
H         -1.258154   -0.535493   -2.008511  
H          0.118281   -4.523737   -3.408802  
H          0.542057   -4.561549   -1.677663  
H         -0.337847   -2.460924   -1.398762  
C         -0.358876   -0.818949    0.750852  
O          0.457178   -1.539255    0.014366  
O         -0.242302    0.494318    0.708803  
H         -3.063377    5.972498   -1.797381  
H          3.446424    3.132732    2.544547  
H          3.696953   -3.969282    2.394372  
H         -1.085416   -5.047696   -2.222486  
H         -1.624545   -0.369698   -3.721302  
C         -2.304791   -0.805250    2.420450  
C         -2.353403    0.594957    2.702144  
C         -3.305768   -1.577376    3.088212  
C         -3.301360    1.146217    3.555571  
H         -1.614409    1.240125    2.252631  
C         -4.252616   -1.012826    3.938642  
H         -3.346586   -2.647982    2.921191  
C         -4.270992    0.360240    4.191185  
H         -3.275027    2.220858    3.733942  
H         -4.991228   -1.662950    4.408761  
H         -5.009411    0.802612    4.856731  
C         -1.322931   -2.981351    1.572428  
H         -1.272008   -3.382153    2.598296  
H         -2.209018   -3.444469    1.106069  
H         -0.448829   -3.337315    1.026439