223

C          2.718663    7.104843   -2.577628  
N          2.437380    5.682984   -2.617996  
C          2.464960    5.033629   -1.300060  
C          3.871221    4.899985   -0.706122  
O          4.075831    5.202469    0.475799  
C          1.706974    3.692914   -1.499527  
C          0.933632    3.874223   -2.831694  
C          1.129103    5.351845   -3.188638  
N          4.892821    4.450091   -1.488161  
C          6.231215    4.326410   -0.892590  
C          7.129914    3.986685   -2.087278  
C          6.190378    3.194131   -3.008832  
C          4.848804    3.929817   -2.869151  
C          1.551340    5.614755    2.842932  
C          0.625344    5.099871    3.950919  
C         -0.030913    6.261188    4.711943  
C         -0.431366    4.147222    3.380541  
C         -0.760972    0.269471    5.934071  
C         -0.196339   -0.992738    5.254922  
C         -1.277683   -1.687649    4.433067  
C          1.067057   -0.660103    4.455205  
C         -5.196199    3.823372    4.129222  
C         -4.085524    3.296847    3.473638  
C         -6.011668    2.975227    4.881936  
C         -3.807318    1.934168    3.526168  
C         -5.737978    1.611946    4.954674  
C         -4.645271    1.080419    4.257765  
O         -4.425620   -0.260050    4.320738  
C         -0.871919    2.489969   -7.345433  
C         -0.800728    2.114714   -5.878680  
O          0.245596    1.716331   -5.372206  
N         -1.974517    2.247285   -5.209471  
C         -2.204336    1.645537   -3.910990  
C         -3.516765    0.853469   -4.003103  
O         -4.440004    1.305913   -4.691700  
N         -3.566296   -0.296131   -3.304195  
C         -4.742425   -1.153052   -3.340698  
C         -5.710547   -0.880684   -2.187579  
O         -6.927735   -0.809355   -2.348674  
C         -4.346215   -2.676042   -3.327866  
O         -3.148331   -2.918918   -4.032292  
C         -5.459116   -3.504153   -3.961499  
N         -5.100134   -0.777742   -0.975587 
C         -5.861911   -0.539484    0.229285  
C         -6.122181    0.955195    0.516343  
O         -6.977656    1.297020    1.330812  
C         -5.219392   -1.236689    1.429482  
O         -3.913826   -0.746622    1.732007  
N         -5.356421    1.815315   -0.191955  
C         -5.595915    3.246057   -0.210445  
C         -4.428186    4.001330   -0.864940  
C         -3.436961    4.690086    0.090839  
C         -2.199728    5.176809   -0.674958  
C         -4.090703    5.857222    0.845437  
C         -3.521439   -5.831885    3.705904  
C         -3.264875   -4.476713    3.517118  
C         -3.637970   -6.661837    2.586280  
C         -3.114099   -3.950057    2.237249  
C         -3.503139   -6.147079    1.298308  
C         -3.241310   -4.777971    1.108244  
O         -3.131101   -4.315289   -0.153458  
C          5.036375    0.410700    4.113199  
C          6.199021   -0.083761    3.268646  
O          6.060978   -0.761880    2.256609  
C          4.778065    1.928331    3.915072  
C          4.448570    2.256742    2.452611  
C          3.676607    2.419128    4.862770  
N          7.432017    0.325049    3.714642  
C          8.636041    0.113464    2.942416  
C          5.495653   -4.167974    1.474546  
C          4.328811   -3.765820    2.355089  
S          3.984167   -5.118530    3.564807  
C          2.476574   -4.472620    4.367253  
C         -0.298418   -5.418909   -1.532536  
C          0.719737   -5.031476   -2.594100  
O          1.600349   -5.829784   -2.950143  
C          0.350270   -5.759505   -0.194958  
S          1.199554   -4.314704    0.561396  
N          0.602610   -3.789906   -3.118469  
C          1.480523   -3.359983   -4.191617  
C          2.968188   -3.255028   -3.834470  
O          3.822578   -3.250016   -4.717087  
N          3.254292   -3.166439   -2.511672  
C          4.615416   -3.128180   -2.038876  
C          5.331292   -4.487357   -1.996184  
O          6.544375   -4.542764   -1.805346 
N          4.541755   -5.584163   -2.121677  
C          2.187422   -0.317693   -0.276485  
C          3.377759    0.068059   -0.894073  
C          3.417884    0.323169   -2.266227  
C          2.235868    0.183406   -3.004190  
C          1.053910   -0.218879   -2.391367  
C          0.975702   -0.487965   -0.998463  
C         -0.263538   -0.847402   -0.294311  
H          2.382175    2.836652   -1.553499  
H          1.041845    3.511199   -0.654274  
H          1.331209    3.224282   -3.612782  
H         -0.124557    3.623365   -2.733074  
H          1.122813    5.546387   -4.267940  
H          0.329433    5.972002   -2.734971  
H          1.926199    5.644952   -0.554893  
H          8.021791    3.426398   -1.791808  
H          7.460639    4.906950   -2.585045  
H          6.089944    2.166530   -2.643472  
H          6.530602    3.148033   -4.047423  
H          3.996605    3.265835   -3.018445  
H          4.758306    4.751432   -3.587225  
H          6.237920    3.527740   -0.139352  
H          2.059554    4.806220    2.312469  
H          0.980542    6.183385    2.097432  
H          1.236048    4.534330    4.670398  
H         -0.676970    5.897467    5.519225  
H          0.719697    6.927895    5.153563  
H         -0.652926    6.863652    4.037440  
H         -1.081906    3.745803    4.164550  
H          0.025296    3.306182    2.850930  
H         -1.068739    4.671871    2.657740  
H          0.102860   -1.687898    6.056350  
H         -0.912499   -2.611488    3.975712  
H         -2.139119   -1.928254    5.064059  
H         -1.637257   -1.038410    3.632336  
H          1.461759   -1.540720    3.939474  
H          1.850460   -0.274761    5.118316  
H          0.864232    0.101774    3.696236  
H         -1.084091    1.001544    5.184899  
H         -0.879512    1.572375   -7.943323  
H         -1.344501    1.033566   -3.640897  
H         -2.322823    2.410422   -3.136179  
H         -4.227984   -2.984689   -2.280720  
H         -5.250542   -4.570653   -3.836294  
H         -6.427809   -3.269442   -3.510717  
H         -5.513062   -3.286854   -5.034131  
H         -2.429277   -2.662482   -3.417221  
H         -5.284951   -0.918842   -4.259433  
H         -5.839415   -1.047895    2.308421  
H         -5.192709   -2.318075    1.244430  
H         -3.264656   -1.061008    1.042057  
H         -6.861400   -0.965489    0.087752  
H         -3.871586    3.301054   -1.495633  
H         -4.831682    4.766327   -1.542981  
H         -3.104967    3.942056    0.820884  
H         -3.387827    6.315733    1.550868  
H         -4.969276    5.537802    1.414028  
H         -4.410512    6.637807    0.142352  
H         -1.488476    5.676936   -0.008271  
H         -1.675894    4.342605   -1.149337 
H         -2.479581    5.891287   -1.460459  
H         -5.771157    3.569709    0.820635  
H         -3.178367   -3.814890    4.372415  
H         -3.838773   -7.723316    2.715532  
H         -2.918927   -2.895293    2.102797  
H         -3.603966   -6.781575    0.422755  
H         -2.877720   -3.335365   -0.183586  
H          5.704584    2.461548    4.181953  
H          5.228655    1.893137    1.776402  
H          4.345318    3.333377    2.289946  
H          3.512216    1.777283    2.145781  
H          3.923027    2.213718    5.911680  
H          3.526183    3.498050    4.754313  
H          2.724025    1.928218    4.639472  
H          4.152344   -0.159581    3.817774  
H          9.015513    1.047354    2.507280  
H          5.783992   -3.341145    0.822214  
H          5.250362   -5.030194    0.849491  
H          4.567982   -2.851156    2.903992  
H          3.423654   -3.597962    1.770922  
H          2.170822   -5.203686    5.120058  
H          2.670805   -3.517796    4.863817  
H          1.672938   -4.355102    3.636205  
H         -0.396080   -6.144486    0.503155  
H          1.131671   -6.510640   -0.335197  
H          0.210817   -3.420312    0.353567  
H         -1.071716   -4.658775   -1.404738  
H          1.428093   -4.053917   -5.035562  
H          1.142996   -2.377834   -4.530636  
H          4.626844   -2.705507   -1.032559  
H          5.217925   -2.481337   -2.681205  
H          3.566001   -5.538891   -2.406099  
H         -3.426745    3.950882    2.915601  
H         -6.877989    3.374719    5.403974  
H         -2.964928    1.522641    2.981261  
H         -6.376746    0.934219    5.512357  
H         -3.978423   -0.528601    3.484751  
H          2.205581   -0.502743    0.791091  
H          4.278333    0.149221   -0.289009  
H          4.348633    0.595022   -2.757037  
H          2.221166    0.394215   -4.069896  
H          0.165003   -0.341737   -2.992852  
H         -5.411436    4.887145    4.076382  
H         -3.633892   -6.240026    4.706643  
H          5.014264   -6.473944   -2.156721  
H          6.375869   -4.423709    2.075480  
H          9.427864   -0.333854    3.554315  
H          8.382062   -0.572025    2.132851  
H          7.465714    0.951952    4.503610  
H          2.700463    7.516388   -3.593248  
H          1.989504    7.672789   -1.965778  
H          3.715454    7.281564   -2.159877  
H          0.027132    3.049286   -7.614336  
H         -1.757124    3.079121   -7.602445  
H          6.503481    5.253006   -0.379207  
H          2.499661   -3.103826   -1.841435  
H         -0.091157   -3.120552   -2.760261  
H         -2.834294    2.409607   -5.722119  
H         -2.704602   -0.673109   -2.894669  
H         -4.103445   -0.999155   -0.891316 
H         -4.717670    1.418407   -0.866662  
H         -6.528466    3.450922   -0.756499  
H          5.233274    0.204817    5.174024  
H         -0.803733   -6.319867   -1.904870  
C         -1.366798   -1.508965   -0.932677  
O         -1.355595   -1.806991   -2.194622  
O         -2.452985   -1.797772   -0.236530  
C         -1.385818    1.423870   -0.229615  
O         -0.623162    1.994682    0.474725 
O         -2.343867    1.272880   -0.914636  
C         -0.190077   -0.895216    1.212515  
H         -1.165784   -1.129309    1.629561  
H          0.510044   -1.651031    1.602405  
H          0.138429    0.062274    1.629968  
H         -1.632738    0.032393    6.553257  
H         -0.010151    0.752266    6.571515  
H          2.325894    6.282519    3.238573 