214

C	-2.645390	5.909264	4.426848
N	-2.332753	4.707851	3.680983
C	-2.348897	4.886398	2.225390
C	-3.760433	4.984922	1.629947
O	-4.023874	5.861650	0.797801
C	-1.502197	3.700960	1.668317
C	-0.841356	3.062646	2.912518
C	-1.037878	4.105189	4.013050
N	-4.713693	4.093829	2.022557
C	-6.060313	4.203762	1.442334
C	-6.869333	3.132358	2.185375
C	-5.814755	2.064496	2.515280
C	-4.574921	2.895673	2.876305
C	-1.670118	6.006270	-1.851611
C	-0.893357	6.312928	-3.137759
C	-0.312185	7.733817	-3.109428
C	0.206253	5.267878	-3.370462
C	0.355152	1.097566	-5.760183
C	-0.192142	-0.237940	-5.221552
C	0.888055	-0.994482	-4.452757
C	-1.451005	-0.010276	-4.376538
C	4.955051	4.330236	-3.772793
C	3.847800	3.739932	-3.164860
C	5.747186	3.568841	-4.635517
C	3.555536	2.394748	-3.370423
C	5.456359	2.226727	-4.863623
C	4.371196	1.625325	-4.212616
O	4.135789	0.305004	-4.429253
C	1.289821	1.521555	7.664974
C	1.130311	1.469582	6.156830
O	0.025086	1.363959	5.630577
N	2.296877	1.515496	5.465956
C	2.401514	1.129508	4.074120
C	3.703600	0.328302	3.933187
O	4.701888	0.712530	4.556212
N	3.666350	-0.749737	3.126515
C	4.848514	-1.594938	2.983788
C	5.751667	-1.155391	1.828811
O	6.976559	-1.101582	1.929195
C	4.468345	-3.108061	2.789108
O	3.335653	-3.468191	3.545197
C	5.639140	-3.990190	3.212746
N	5.070815	-0.883940	0.681469
C	5.767128	-0.521743	-0.534577
C	6.010127	0.998559	-0.669912
O	6.786874	1.442190	-1.511475
C	5.042057	-1.080089	-1.761800
O	3.733475	-0.540224	-1.927486
N	5.312695	1.766113	0.206107
C	5.598750	3.173683	0.419321
C	4.486012	3.847234	1.238184
C	3.397442	4.587640	0.440857
C	2.228187	4.970743	1.356381
C	3.960194	5.842516	-0.244479
C	3.126804	-5.276313	-4.534193
C	2.797594	-3.975595	-4.160035
C	3.413043	-6.211901	-3.533866
C	2.747305	-3.603601	-2.818367
C	3.377936	-5.853190	-2.187874
C	3.050376	-4.536751	-1.809848
O	3.049396	-4.229398	-0.499247
C	-5.321196	1.056637	-3.587130
C	-6.426023	0.525547	-2.689132
O	-6.218282	-0.151024	-1.688629
C	-4.949257	2.522228	-3.232168
C	-4.302052	2.615304	-1.843442
C	-4.047904	3.136760	-4.311058
N	-7.688878	0.912473	-3.066507
C	-8.850608	0.644405	-2.249220
C	-5.710308	-3.828458	-1.556835
C	-4.589998	-3.324810	-2.445568
S	-4.216623	-4.593618	-3.732487
C	-2.728174	-3.867234	-4.501485
C	0.226262	-5.532593	0.899116
C	-0.712512	-5.284432	2.070077
O	-1.599421	-6.101294	2.366781
C	-0.479085	-5.432116	-0.457193
S	-1.352084	-3.838559	-0.767262
N	-0.529015	-4.122812	2.737230
C	-1.332289	-3.799989	3.900521
C	-2.836755	-3.601589	3.659898
O	-3.625616	-3.664596	4.600442
N	-3.212473	-3.353000	2.380218
C	-4.605253	-3.277241	2.003383
C	-5.323051	-4.625323	1.827516
O	-6.543275	-4.656391	1.676381
N	-4.535949	-5.727595	1.804439
C	-2.037824	-0.127706	1.114717
C	-0.839292	-0.718726	1.365948
C	0.262198	-0.891331	0.458197
H	-2.101204	2.966563	1.123732
H	-0.760687	4.084891	0.963625
H	-1.331196	2.125254	3.180476
H	0.210614	2.823882	2.750541
H	-1.055165	3.661372	5.012274
H	-0.226629	4.862214	3.985908
H	-1.875218	5.840181	1.933324
H	-7.700185	2.749152	1.585882
H	-7.287708	3.548490	3.110415
H	-5.611940	1.449268	1.631725
H	-6.110878	1.393097	3.325817
H	-3.646616	2.362279	2.672575
H	-4.566686	3.176854	3.934576
H	-6.022463	4.009956	0.362809
H	-2.091037	4.996660	-1.869866
H	-1.011113	6.066907	-0.976981
H	-1.596337	6.257266	-3.983289
H	0.216936	7.969721	-4.040066
H	-1.097957	8.484504	-2.966186
H	0.403391	7.843672	-2.284974
H	0.788843	5.475468	-4.274386
H	-0.217406	4.263128	-3.466081
H	0.904641	5.251070	-2.525562
H	-0.481853	-0.851416	-6.089438
H	0.525899	-1.962247	-4.094042
H	1.766886	-1.160608	-5.083336
H	1.213752	-0.422475	-3.580484
H	-1.838526	-0.949630	-3.970154
H	-2.244223	0.453791	-4.974779
H	-1.237404	0.648379	-3.526883
H	0.667472	1.750195	-4.936304
H	1.185075	0.506316	8.062059
H	1.513811	0.563568	3.781848
H	2.467366	2.008269	3.417651
H	4.268626	-3.270535	1.721908
H	5.430495	-5.033179	2.957147
H	6.567652	-3.677110	2.726675
H	5.775370	-3.922544	4.298016
H	2.570401	-3.158766	3.009131
H	5.442467	-1.481794	3.894015
H	5.614157	-0.808255	-2.651576
H	5.004435	-2.174402	-1.687441
H	3.123156	-0.916843	-1.227533
H	6.771272	-0.959445	-0.499940
H	4.019862	3.095408	1.887677
H	4.946306	4.571622	1.925572
H	3.021128	3.904316	-0.330930
H	3.190161	6.346774	-0.839927
H	4.793723	5.609511	-0.912770
H	4.318961	6.559106	0.506177
H	1.450505	5.511645	0.805656
H	1.765676	4.087468	1.805336
H	2.567491	5.621226	2.173011
H	5.728281	3.637169	-0.562656
H	2.574276	-3.234545	-4.920272
H	3.670018	-7.234478	-3.803204
H	2.500205	-2.587590	-2.541189
H	3.608715	-6.571304	-1.406513
H	2.795726	-3.259893	-0.310904
H	-5.884844	3.102476	-3.210971
H	-4.913991	2.123247	-1.082764
H	-4.155060	3.658454	-1.545409
H	-3.324581	2.119624	-1.838789
H	-4.529123	3.121898	-5.296540
H	-3.808074	4.177553	-4.068551
H	-3.103614	2.588726	-4.392045
H	-4.449548	0.409212	-3.463295
H	-9.264042	1.561357	-1.809238
H	-6.025619	-3.045509	-0.863324
H	-5.403995	-4.701203	-0.977429
H	-4.880243	-2.392866	-2.938980
H	-3.680929	-3.145339	-1.869547
H	-2.383794	-4.567749	-5.266480
H	-2.953088	-2.908630	-4.977855
H	-1.939828	-3.739694	-3.755658
H	0.241476	-5.607452	-1.259001
H	-1.269028	-6.184969	-0.525746
H	-0.405023	-2.954494	-0.323518
H	1.085731	-4.858579	0.923322
H	-1.265284	-4.592703	4.652241
H	-0.930676	-2.883909	4.342855
H	-4.685212	-2.726853	1.063851
H	-5.166529	-2.731039	2.766018
H	-3.540244	-5.719866	2.017951
H	3.205738	4.331240	-2.521844
H	6.609215	4.019017	-5.122152
H	2.720127	1.924551	-2.862915
H	6.078515	1.613134	-5.507503
H	3.720403	-0.067066	-3.615057
H	-2.300015	0.272026	0.139011
H	5.182007	5.378803	-3.600548
H	3.161978	-5.560317	-5.582340
H	-5.007407	-6.614966	1.725140
H	-6.591834	-4.108314	-2.146992
H	-9.639540	0.147738	-2.826093
H	-8.529565	-0.018142	-1.444384
H	-7.783828	1.516813	-3.867796
H	-2.650890	5.688176	5.499829
H	-1.920906	6.730614	4.251327
H	-3.639880	6.277421	4.152293
H	0.486410	2.127226	8.089960
H	2.256666	1.920164	7.986608
H	-6.446521	5.219793	1.570087
H	-2.509574	-3.275678	1.653390
H	0.196340	-3.448097	2.436988
H	3.189527	1.521269	5.945531
H	2.764703	-1.137181	2.806623
H	4.072901	-1.139354	0.616436
H	4.816726	1.261495	0.928543
H	6.560448	3.280164	0.942931
H	-5.636274	1.002119	-4.637874
H	0.605263	-6.556495	1.005359
C	1.398788	-1.622265	0.855073
O	1.458096	-2.194731	2.036114
O	2.454296	-1.761945	0.048877
C	0.176483	-0.210066	-0.879567
H	1.111753	-0.290750	-1.431967
H	-0.617703	-0.631177	-1.516150
H	-0.061531	0.860002	-0.767681
H	1.232171	0.940223	-6.396939
H	-0.400480	1.635176	-6.346134
H	-2.495693	6.704073	-1.681861
H	-2.805120	-0.083313	1.881828
H	-0.679886	-1.119989	2.365194