217

C	-3.361268	-6.592334	-1.372776
N	-3.561895	-5.298479	-1.998365
C	-3.728816	-4.194812	-1.041362
C	-5.131220	-4.129665	-0.421962
O	-5.279106	-3.920386	0.786078
C	-3.343270	-2.907974	-1.836670
C	-2.797781	-3.419782	-3.190647
C	-2.488492	-4.891713	-2.913353
N	-6.233396	-4.281803	-1.216367
C	-7.559319	-4.162978	-0.591634
C	-8.533775	-4.469644	-1.736495
C	-7.768864	-3.994415	-2.981365
C	-6.320969	-4.411174	-2.680316
C	-3.080137	-4.629932	3.168944
C	-1.883075	-3.972202	3.868726
C	-1.063970	-5.005654	4.655602
C	-0.999758	-3.214802	2.868040
C	0.486778	0.183468	5.922540
C	0.284812	1.484756	5.123108
C	1.174387	1.498760	3.883261
C	-1.197633	1.670077	4.781146
C	3.874487	-4.539378	4.589466
C	2.966407	-3.826112	3.809091
C	4.827821	-3.844140	5.336870
C	3.033255	-2.438616	3.728044
C	4.893253	-2.454187	5.281780
C	4.009271	-1.745046	4.458138
O	4.121481	-0.391669	4.397429
C	0.274504	-3.136043	-7.124450
C	0.281841	-2.645962	-5.689655
O	-0.638136	-1.964228	-5.243762
N	1.373570	-3.010479	-4.968875
C	1.713559	-2.369568	-3.714842
C	3.190735	-1.954428	-3.796451
O	3.987071	-2.711551	-4.364761
N	3.513473	-0.782845	-3.213536
C	4.882743	-0.283817	-3.261905
C	5.710886	-0.702308	-2.047989
O	6.868554	-1.106031	-2.146796
C	4.944233	1.278789	-3.407542
O	3.931169	1.769050	-4.258402
C	6.296983	1.692365	-3.979655
N	5.072637	-0.533641	-0.858904
C	5.732873	-0.853197	0.388791
C	5.603506	-2.336944	0.791152
O	6.322583	-2.817006	1.665868
C	5.255146	0.096782	1.492916
O	3.864492	-0.018456	1.782606
N	4.678338	-3.034648	0.096582
C	4.496168	-4.464613	0.238179
C	3.184793	-4.946203	-0.402726
C	2.055525	-5.364703	0.554127
C	0.762983	-5.636674	-0.228345
C	2.439775	-6.593438	1.390970
C	4.788026	5.145913	3.337031
C	3.920143	4.056800	3.236433
C	5.417239	5.610968	2.177507
C	3.683543	3.435391	2.011292
C	5.193164	4.998618	0.945765
C	4.326256	3.894032	0.846740
O	4.153765	3.322552	-0.361440
C	-5.109380	1.388310	3.878982
C	-6.090264	2.163248	3.013452
O	-5.754257	2.870899	2.071779
C	-5.233646	-0.146408	3.689287
C	-4.860701	-0.565646	2.260147
C	-4.397295	-0.895726	4.734014
N	-7.408953	1.998446	3.366002
C	-8.482811	2.503252	2.539748
C	-4.305104	5.682669	0.870779
C	-3.301292	5.070612	1.828040
S	-2.458089	6.444035	2.733205
C	-1.202758	5.528006	3.689966
C	1.672426	5.126541	-1.982024
C	0.620879	4.921177	-3.062423
O	-0.037678	5.877081	-3.503119
C	1.059830	5.599741	-0.662410
S	-0.171095	4.427509	0.048717
N	0.433238	3.648515	-3.480645
C	-0.518727	3.345296	-4.532143
C	-2.000297	3.590464	-4.213928
O	-2.828465	3.599833	-5.120731
N	-2.319906	3.775459	-2.905359
C	-3.658203	4.149246	-2.510087
C	-4.001304	5.641010	-2.665240
O	-5.160492	6.024880	-2.528337
N	-2.958488	6.473986	-2.906890
C	-1.384979	0.898698	1.002486
C	-0.746491	0.633934	-1.879711
C	0.321775	0.764176	-0.822295
H	-4.194135	-2.232461	-1.964831
H	-2.574681	-2.362274	-1.290172
H	-3.559974	-3.346036	-3.974286
H	-1.929743	-2.856211	-3.535426
H	-2.497760	-5.521180	-3.811754
H	-1.492426	-4.996105	-2.443733
H	-3.053707	-4.303691	-0.178764
H	-9.500412	-3.974725	-1.604428
H	-8.717078	-5.549420	-1.798726
H	-7.833750	-2.903524	-3.067480
H	-8.140301	-4.426931	-3.915353
H	-5.589212	-3.778926	-3.181739
H	-6.125817	-5.443591	-2.992354
H	-7.698160	-3.148930	-0.194311
H	-3.674411	-3.921365	2.589363
H	-2.736227	-5.402990	2.468650
H	-2.273091	-3.239209	4.590567
H	-0.219362	-4.539785	5.174722
H	-1.679711	-5.521813	5.402597
H	-0.654599	-5.769359	3.981324
H	-0.144130	-2.748047	3.368402
H	-1.551087	-2.426433	2.346120
H	-0.605351	-3.895809	2.103770
H	0.586820	2.325660	5.766974
H	1.004067	2.393601	3.277225
H	2.230064	1.465014	4.165558
H	0.969069	0.627256	3.254663
H	-1.365967	2.572353	4.186154
H	-1.810103	1.737676	5.688827
H	-1.561311	0.818838	4.195515
H	0.159675	-0.682123	5.334041
H	0.512269	-2.294915	-7.784132
H	1.038418	-1.527520	-3.549857
H	1.598104	-3.065142	-2.873475
H	4.832355	1.717603	-2.407236
H	6.388530	2.782361	-3.963883
H	7.120596	1.251385	-3.411539
H	6.374133	1.355795	-5.019714
H	3.134452	1.806665	-3.689208
H	5.364339	-0.745369	-4.127596
H	5.786736	-0.150701	2.414448
H	5.507644	1.125287	1.205544
H	3.306233	0.370238	1.060314
H	6.808468	-0.698969	0.251929
H	2.806024	-4.164163	-1.069654
H	3.402683	-5.802879	-1.056603
H	1.868151	-4.522853	1.230680
H	1.640677	-6.857387	2.093568
H	3.349964	-6.425162	1.973947
H	2.611573	-7.462591	0.742053
H	-0.043376	-5.959647	0.440324
H	0.415535	-4.740681	-0.750876
H	0.914429	-6.429668	-0.972642
H	4.540049	-4.701695	1.306696
H	3.416279	3.678722	4.121863
H	6.094878	6.460676	2.231118
H	3.018473	2.583692	1.941843
H	5.685241	5.349848	0.043663
H	3.539759	2.511916	-0.338665
H	-6.286684	-0.423032	3.858841
H	-5.425082	0.006123	1.516296
H	-5.059016	-1.628202	2.090170
H	-3.797321	-0.383729	2.069216
H	-4.699422	-0.634594	5.755744
H	-4.507043	-1.978078	4.612969
H	-3.334210	-0.657061	4.630209
H	-4.103755	1.720042	3.610358
H	-8.992176	1.701978	1.987914
H	-4.884958	4.897110	0.380279
H	-3.814688	6.284792	0.101963
H	-3.805788	4.419881	2.545045
H	-2.544521	4.489791	1.298801
H	-0.596885	6.268536	4.218582
H	-1.666273	4.864185	4.424833
H	-0.557057	4.955109	3.020169
H	1.848253	5.781313	0.071469
H	0.501940	6.526897	-0.816896
H	0.538014	3.287518	-0.095165
H	2.271196	4.226563	-1.820939
H	-0.312168	3.941508	-5.426390
H	-0.404948	2.290880	-4.796341
H	-3.813172	3.878282	-1.463051
H	-4.383160	3.601657	-3.115929
H	-2.014712	6.156912	-3.117390
H	2.197686	-4.353679	3.256583
H	5.537116	-4.388541	5.955968
H	2.363751	-1.889209	3.075859
H	5.643955	-1.899079	5.835653
H	3.807601	-0.106261	3.504191
H	-1.600283	1.041438	2.054397
H	3.822746	-5.623657	4.639098
H	4.968745	5.624575	4.295318
H	-3.183725	7.446775	-3.044849
H	-5.017669	6.325804	1.399752
H	-9.226414	3.040430	3.139878
H	-8.038435	3.192387	1.820643
H	-7.625670	1.315432	4.075405
H	-3.285364	-7.368843	-2.142549
H	-2.446872	-6.637089	-0.750870
H	-4.215076	-6.836426	-0.731406
H	-0.731254	-3.478485	-7.378123
H	0.991934	-3.939931	-7.313662
H	-7.645292	-4.848853	0.256175
H	-1.585187	3.798905	-2.206543
H	0.973348	2.866638	-3.077318
H	2.175979	-3.427855	-5.427297
H	2.775714	-0.109280	-2.955284
H	4.163707	-0.065499	-0.833047
H	4.123520	-2.530490	-0.579047
H	5.349609	-4.984278	-0.220590
H	-5.279891	1.644595	4.933787
H	2.352955	5.907594	-2.343541
C	1.650490	1.131124	-1.197558
O	1.909063	1.378948	-2.454696
O	2.630177	1.211714	-0.318901
C	0.780282	-1.766995	-0.382989
O	-0.317598	-2.162730	-0.570450
O	1.935332	-1.762205	-0.129844
C	-0.106927	0.884012	0.546957
H	0.696356	1.020204	1.264822
H	-1.402648	1.514067	-1.930942
H	-1.404042	-0.216100	-1.662661
H	1.541861	0.028752	6.170756
H	-0.090344	0.190124	6.855573
H	-3.744175	-5.120906	3.892189
H	-2.237948	0.798657	0.338958
H	-0.312990	0.481519	-2.869900