214

C	-2.988542	5.578432	4.635292
N	-2.617989	4.408099	3.866375
C	-2.672933	4.606093	2.414634
C	-4.097473	4.627954	1.842381
O	-4.429955	5.511121	1.041914
C	-1.767751	3.481702	1.823423
C	-1.052643	2.863064	3.047394
C	-1.281234	3.883478	4.162164
N	-4.984565	3.664734	2.216219
C	-6.338407	3.695038	1.641631
C	-7.072237	2.560221	2.368033
C	-5.947894	1.561707	2.684757
C	-4.767214	2.470256	3.057297
C	-2.104982	5.922153	-1.620489
C	-1.792492	6.513868	-3.000875
C	-2.082931	8.021199	-3.036859
C	-0.342383	6.221508	-3.414259
C	0.256126	1.324990	-5.715033
C	-0.186720	-0.066510	-5.224273
C	0.949655	-0.757209	-4.471538
C	-1.459359	0.037108	-4.375520
C	4.614568	4.817360	-3.625470
C	3.527971	4.118006	-3.097823
C	5.511599	4.150755	-4.463602
C	3.363462	2.759306	-3.355103
C	5.345071	2.797966	-4.747272
C	4.282316	2.087362	-4.174280
O	4.168531	0.760752	-4.447367
C	1.240370	1.325550	7.713276
C	1.076503	1.317099	6.204773
O	-0.019569	1.145960	5.676670
N	2.232590	1.476684	5.511788
C	2.355759	1.149475	4.106519
C	3.713570	0.455837	3.931056
O	4.685717	0.893585	4.558306
N	3.752662	-0.592454	3.084484
C	4.992187	-1.342734	2.907606
C	5.850285	-0.800687	1.763330
O	7.068111	-0.661975	1.858234
C	4.735927	-2.876498	2.689841
O	3.652160	-3.341409	3.462781
C	5.982389	-3.666423	3.078198
N	5.142485	-0.529059	0.631392
C	5.806265	-0.075733	-0.571830
C	5.918804	1.463398	-0.667788
O	6.648279	1.990900	-1.502308
C	5.140634	-0.671887	-1.816618
O	3.791733	-0.242278	-1.989674
N	5.170839	2.147136	0.237132
C	5.368844	3.559349	0.518715
C	4.214126	4.117420	1.365813
C	3.036113	4.735764	0.592131
C	1.846233	4.979850	1.528076
C	3.446567	6.052483	-0.085170
C	3.502794	-4.864585	-4.735372
C	2.736766	-3.820755	-4.218290
C	4.318067	-5.598110	-3.868458
C	2.782900	-3.499931	-2.863158
C	4.377652	-5.288614	-2.511417
C	3.614197	-4.227775	-1.994213
O	3.719119	-3.950075	-0.676162
C	-5.387703	0.780447	-3.525187
C	-6.441475	0.165368	-2.619762
O	-6.175525	-0.466985	-1.604313
C	-5.104751	2.258916	-3.139443
C	-4.420010	2.360735	-1.769111
C	-4.283422	2.964451	-4.226609
N	-7.733192	0.430776	-3.003860
C	-8.868146	0.056907	-2.191136
C	-5.398900	-4.191154	-1.675667
C	-4.324821	-3.572984	-2.549062
S	-4.011233	-4.668692	-4.004531
C	-2.427671	-3.976968	-4.599259
C	0.663398	-5.535749	0.694824
C	-0.285963	-5.493405	1.882672
O	-1.105047	-6.398694	2.101226
C	-0.072189	-5.299371	-0.636604
S	-1.133273	-3.788475	-0.728172
N	-0.196634	-4.388862	2.664867
C	-1.055280	-4.212323	3.817479
C	-2.556903	-4.016140	3.552448
O	-3.351812	-4.111094	4.487352
N	-2.921601	-3.740638	2.276955
C	-4.315808	-3.689697	1.898628
C	-4.988254	-5.054743	1.671475
O	-6.207005	-5.126286	1.521039
N	-4.162911	-6.127197	1.603679
C	-1.960927	-0.317284	1.174872
C	-0.781642	-0.945803	1.358628
C	0.242544	-1.212492	0.349078
H	-2.333408	2.727717	1.270715
H	-1.059041	3.922377	1.118285
H	-1.488714	1.901553	3.321434
H	0.006259	2.677072	2.863835
H	-1.247505	3.433044	5.158086
H	-0.517947	4.688163	4.121694
H	-2.263275	5.591268	2.130014
H	-7.873391	2.129292	1.760906
H	-7.519903	2.933279	3.297731
H	-5.704786	0.973326	1.793104
H	-6.198041	0.861617	3.486343
H	-3.803361	2.005825	2.851434
H	-4.779259	2.739797	4.118863
H	-6.289622	3.522220	0.558982
H	-1.927274	4.841581	-1.605873
H	-1.460552	6.370807	-0.853505
H	-2.453630	6.028975	-3.735343
H	-1.900441	8.441534	-4.033149
H	-3.122736	8.233243	-2.764157
H	-1.439839	8.557419	-2.327458
H	-0.112920	6.633332	-4.403769
H	-0.143683	5.145390	-3.446767
H	0.361232	6.666333	-2.698936
H	-0.426241	-0.674469	-6.110726
H	0.627904	-1.722406	-4.070454
H	1.818355	-0.914495	-5.118280
H	1.280734	-0.147562	-3.626583
H	-1.752490	-0.934990	-3.967069
H	-2.295744	0.421803	-4.971120
H	-1.308392	0.715228	-3.527457
H	0.502031	1.974027	-4.866461
H	1.213305	0.291471	8.072816
H	1.511105	0.526605	3.801475
H	2.347502	2.053634	3.481826
H	4.532885	-3.039239	1.624045
H	5.853849	-4.717777	2.805631
H	6.873935	-3.270539	2.583715
H	6.131031	-3.607053	4.162235
H	2.852967	-3.105961	2.943870
H	5.583303	-1.202392	3.815750
H	5.692453	-0.334144	-2.696165
H	5.196172	-1.765766	-1.759588
H	3.206434	-0.693749	-1.330969
H	6.844357	-0.424611	-0.537950
H	3.852248	3.324152	2.032924
H	4.615931	4.891758	2.035198
H	2.726877	4.021865	-0.182352
H	2.618144	6.471228	-0.668254
H	4.294905	5.921964	-0.762407
H	3.728069	6.798313	0.670059
H	1.005744	5.436874	0.994250
H	1.490445	4.046988	1.974438
H	2.124421	5.655786	2.347145
H	5.474209	4.081032	-0.436317
H	2.095567	-3.243045	-4.875154
H	4.919309	-6.419640	-4.252433
H	2.184870	-2.689622	-2.464035
H	5.013187	-5.847336	-1.831073
H	3.224729	-3.115361	-0.427639
H	-6.077249	2.770896	-3.073357
H	-4.971661	1.806555	-1.005239
H	-4.333138	3.403472	-1.446767
H	-3.411205	1.933992	-1.811378
H	-4.795205	2.945467	-5.196458
H	-4.106840	4.012001	-3.959191
H	-3.306799	2.486405	-4.353815
H	-4.474227	0.187771	-3.429800
H	-9.368525	0.931780	-1.755337
H	-5.672861	-3.507230	-0.868787
H	-5.059358	-5.128609	-1.229952
H	-4.632170	-2.586654	-2.909998
H	-3.383509	-3.480747	-2.002071
H	-2.064186	-4.631163	-5.396105
H	-2.557967	-2.969069	-5.004195
H	-1.699883	-3.957757	-3.783744
H	0.660280	-5.281738	-1.448186
H	-0.755394	-6.134564	-0.816403
H	-0.248176	-2.559654	-0.190820
H	1.470437	-4.807873	0.814401
H	-0.993432	-5.081902	4.478912
H	-0.698439	-3.342999	4.377063
H	-4.409788	-3.109421	0.977988
H	-4.892589	-3.189508	2.679931
H	-3.161656	-6.087412	1.777642
H	2.798467	4.632583	-2.480486
H	6.357894	4.685114	-4.888677
H	2.543995	2.205560	-2.909216
H	6.048874	2.259902	-5.374232
H	3.762161	0.316915	-3.666756
H	-2.270632	0.083366	0.213832
H	4.741918	5.875553	-3.414046
H	3.462561	-5.107175	-5.793595
H	-4.597393	-7.026145	1.467682
H	-6.314324	-4.396704	-2.244129
H	-9.603744	-0.513280	-2.770201
H	-8.489601	-0.570845	-1.383295
H	-7.882995	0.989308	-3.829408
H	-2.959798	5.343482	5.704902
H	-2.319145	6.444581	4.457362
H	-4.008780	5.888251	4.384433
H	0.396675	1.853811	8.162665
H	2.176789	1.782742	8.046572
H	-6.790449	4.680955	1.787334
H	-2.227647	-3.697172	1.528921
H	0.437852	-3.627362	2.403963
H	3.124779	1.532996	5.988547
H	2.881793	-1.023797	2.749094
H	4.172486	-0.860512	0.562355
H	4.734069	1.579489	0.951216
H	6.318684	3.695617	1.057128
H	-5.714859	0.729342	-4.572058
H	1.116962	-6.534124	0.673762
C	1.533553	-1.679179	0.803439
O	1.648120	-2.195980	1.983366
O	2.569718	-1.652279	0.002341
C	0.160293	-0.395963	-0.923517
H	0.966786	-0.660081	-1.604475
H	-0.784224	-0.582646	-1.448140
H	0.214003	0.686694	-0.729112
H	1.151556	1.260091	-6.342369
H	-0.533322	1.817372	-6.295953
H	-3.139222	6.095851	-1.309022
H	-2.675393	-0.236067	1.988809
H	-0.566474	-1.336623	2.350770