217

C	2.449923	-6.334973	3.944178
N	2.340417	-5.018988	3.347627
C	2.392443	-5.024381	1.881478
C	3.797120	-5.243742	1.306167
O	3.969594	-6.024676	0.363811
C	1.743101	-3.671314	1.452193
C	1.115312	-3.102733	2.747205
C	1.123412	-4.285988	3.715681
N	4.851888	-4.551524	1.826461
C	6.181273	-4.751621	1.232004
C	7.113601	-3.927435	2.129768
C	6.204440	-2.794906	2.632070
C	4.860858	-3.501976	2.863351
C	1.783127	-5.830924	-2.279653
C	0.953105	-5.552605	-3.537958
C	0.298994	-6.836995	-4.067309
C	-0.094457	-4.465006	-3.270929
C	-0.266671	-0.660390	-5.820547
C	0.253212	0.636460	-5.171602
C	-0.876506	1.346160	-4.428965
C	1.466338	0.347981	-4.281380
C	-4.841724	-4.103953	-4.156304
C	-3.756795	-3.550214	-3.478430
C	-5.620681	-3.287027	-4.979345
C	-3.470627	-2.191532	-3.578698
C	-5.337506	-1.928846	-5.100632
C	-4.272133	-1.369650	-4.383214
O	-4.042723	-0.033392	-4.497917
C	-1.366630	-2.148183	7.516048
C	-1.183366	-1.971253	6.019034
O	-0.071721	-1.786297	5.526019
N	-2.334435	-2.003185	5.305167
C	-2.438099	-1.491858	3.951642
C	-3.752006	-0.696259	3.891571
O	-4.728708	-1.110008	4.530908
N	-3.737918	0.417538	3.138563
C	-4.912269	1.274547	3.043500
C	-5.790615	0.926143	1.839209
O	-7.014765	0.836078	1.914629
C	-4.523515	2.795234	2.982649
O	-3.406172	3.089527	3.792270
C	-5.698505	3.647406	3.451931
N	-5.092463	0.771311	0.680643
C	-5.769241	0.467351	-0.560460
C	-6.023088	-1.040408	-0.778081
O	-6.865845	-1.421879	-1.587850
C	-5.031874	1.097602	-1.744111
O	-3.699728	0.609498	-1.908148
N	-5.272704	-1.868975	-0.015270
C	-5.556658	-3.288681	0.103976
C	-4.444339	-4.008418	0.883154
C	-3.280520	-4.587388	0.058916
C	-2.098254	-4.944270	0.969596
C	-3.727361	-5.824109	-0.735706
C	-3.150851	5.557757	-4.139004
C	-2.909562	4.222959	-3.828300
C	-3.352642	6.471075	-3.099092
C	-2.857274	3.796844	-2.503838
C	-3.317762	6.057345	-1.769291
C	-3.073385	4.707882	-1.454342
O	-3.061160	4.345200	-0.157336
C	5.380091	-0.709084	-3.571887
C	6.479102	-0.171975	-2.671200
O	6.270451	0.565525	-1.714878
C	5.032743	-2.186439	-3.246590
C	4.470327	-2.334332	-1.825241
C	4.069369	-2.763934	-4.291268
N	7.736398	-0.622069	-2.991238
C	8.885367	-0.352770	-2.156697
C	5.668489	4.006962	-1.160789
C	4.567479	3.558605	-2.101722
S	4.715206	4.483147	-3.696714
C	3.054427	4.222870	-4.408955
C	-0.324392	5.428797	1.337689
C	0.613886	5.041367	2.469959
O	1.457280	5.844883	2.899790
C	0.322674	6.328495	0.291933
S	1.475157	5.449613	-0.846509
N	0.438207	3.817141	3.015642
C	1.209853	3.429655	4.183883
C	2.729728	3.394663	3.971469
O	3.505787	3.574105	4.905644
N	3.131094	3.159387	2.694720
C	4.526475	3.162832	2.329682
C	5.190884	4.544326	2.216077
O	6.411733	4.622855	2.089848
N	4.365317	5.616790	2.215141
C	2.173678	0.398790	0.971578
C	0.883709	0.686828	1.290109
C	-0.184748	1.037036	0.387161
H	2.467381	-2.974188	1.022875
H	0.992379	-3.846270	0.679158
H	1.714627	-2.284039	3.151292
H	0.112982	-2.703410	2.590146
H	1.151802	-3.971828	4.762473
H	0.220563	-4.913622	3.572852
H	1.803268	-5.858998	1.463393
H	7.997488	-3.568882	1.594069
H	7.459272	-4.535458	2.975080
H	6.095367	-2.027450	1.857537
H	6.575141	-2.304691	3.536575
H	4.010772	-2.828351	2.760202
H	4.802677	-3.945614	3.863221
H	6.187952	-4.390104	0.195284
H	2.261194	-4.923140	-1.901968
H	1.152241	-6.222439	-1.472427
H	1.633212	-5.180328	-4.319545
H	-0.270071	-6.648865	-4.985020
H	1.047989	-7.607802	-4.285396
H	-0.396175	-7.252041	-3.326481
H	-0.694129	-4.248296	-4.161235
H	0.369220	-3.531673	-2.937216
H	-0.782117	-4.779612	-2.476483
H	0.588788	1.301717	-5.983187
H	-0.554042	2.310380	-4.026332
H	-1.727934	1.514455	-5.095807
H	-1.232803	0.739987	-3.592252
H	1.812664	1.246905	-3.761665
H	2.299287	-0.043034	-4.877366
H	1.220593	-0.394076	-3.514273
H	-0.623507	-1.359937	-5.055948
H	-1.277259	-1.168112	7.996546
H	-1.563245	-0.881220	3.720919
H	-2.483428	-2.300598	3.213584
H	-4.299867	3.045496	1.937403
H	-5.480761	4.706958	3.288849
H	-6.616406	3.380981	2.919872
H	-5.860946	3.489730	4.524042
H	-2.629859	2.794686	3.271025
H	-5.522238	1.086978	3.930177
H	-5.573872	0.849098	-2.659006
H	-5.029374	2.188399	-1.623675
H	-3.109820	0.992399	-1.202734
H	-6.773688	0.902517	-0.519171
H	-4.052590	-3.321791	1.643005
H	-4.898389	-4.835088	1.448887
H	-2.945275	-3.815690	-0.644912
H	-2.916444	-6.207497	-1.365934
H	-4.579789	-5.608152	-1.386321
H	-4.022554	-6.630601	-0.051512
H	-1.272182	-5.380598	0.396974
H	-1.715972	-4.059634	1.486731
H	-2.396683	-5.676779	1.731109
H	-5.686200	-3.698479	-0.902865
H	-2.759499	3.498563	-4.621954
H	-3.542305	7.518255	-3.325118
H	-2.676256	2.755991	-2.275985
H	-3.487227	6.755852	-0.955096
H	-2.826691	3.365728	-0.040637
H	5.967646	-2.765821	-3.301646
H	5.146137	-1.907372	-1.078307
H	4.307077	-3.388471	-1.577594
H	3.511880	-1.812411	-1.726930
H	4.482583	-2.691984	-5.304626
H	3.861150	-3.818938	-4.084995
H	3.113997	-2.229850	-4.280228
H	4.499079	-0.078149	-3.431919
H	9.243877	-1.256153	-1.645960
H	5.735525	3.342351	-0.299219
H	5.503639	5.024631	-0.800437
H	4.648284	2.487158	-2.298876
H	3.582991	3.772002	-1.676675
H	3.037124	4.725514	-5.379449
H	2.844505	3.161254	-4.561262
H	2.284000	4.664967	-3.771861
H	-0.440619	6.827335	-0.308833
H	0.937057	7.083433	0.787930
H	0.548212	4.630832	-1.385503
H	-0.796781	4.559269	0.878292
H	1.045334	4.122249	5.014367
H	0.868304	2.437420	4.493557
H	4.630290	2.654660	1.368602
H	5.120286	2.611166	3.065323
H	3.375650	5.563384	2.446335
H	-3.124659	-4.178683	-2.863272
H	-6.466690	-3.706108	-5.518936
H	-2.648160	-1.759498	-3.018534
H	-5.949588	-1.275028	-5.713951
H	-3.641131	0.276326	-3.653438
H	2.543800	0.420886	-0.049088
H	-5.063751	-5.163644	-4.065102
H	-3.186340	5.887356	-5.173781
H	4.809508	6.521631	2.201293
H	6.647371	3.972007	-1.652977
H	9.711968	0.069773	-2.739693
H	8.572635	0.374070	-1.405866
H	7.829470	-1.273317	-3.755121
H	2.438470	-6.248927	5.036332
H	1.627051	-7.015940	3.646849
H	3.394908	-6.805821	3.651854
H	-0.564476	-2.779936	7.904525
H	-2.334479	-2.579637	7.787903
H	6.427032	-5.817360	1.197960
H	2.456462	2.827291	2.014766
H	-0.219755	3.122819	2.630641
H	-3.233479	-2.047879	5.772708
H	-2.845320	0.779312	2.772077
H	-4.099600	1.025486	0.653721
H	-4.646929	-1.441769	0.654130
H	-6.517937	-3.424965	0.620264
H	5.688800	-0.627676	-4.622781
H	-1.147964	5.988164	1.804678
C	-1.390049	1.597208	0.913512
O	-1.503802	1.842128	2.185332
O	-2.420834	1.842152	0.125255
C	-1.240567	-1.303063	0.137694
O	-0.467289	-1.757044	-0.635138
O	-2.186376	-1.257296	0.854497
C	0.162577	1.225671	-1.061978
H	-0.698521	1.579271	-1.626130
H	0.972730	1.964617	-1.184936
H	0.519468	0.297752	-1.522007
H	-1.106104	-0.459028	-6.494518
H	0.519212	-1.165752	-6.395437
H	2.573216	-6.567898	-2.459113
H	2.882526	0.101714	1.739080
H	0.598929	0.628916	2.340250