217

C	-2.348169	-7.571488	-2.111130
N	-1.982287	-6.179323	-2.277558
C	-2.002858	-5.402525	-1.027660
C	-3.423095	-5.070498	-0.552512
O	-3.751527	-5.279461	0.623353
C	-1.094359	-4.170509	-1.301459
C	-0.406391	-4.473080	-2.655000
C	-0.657291	-5.967717	-2.865772
N	-4.321514	-4.549287	-1.432967
C	-5.670828	-4.215163	-0.951080
C	-6.414812	-3.772186	-2.217796
C	-5.296007	-3.187158	-3.093650
C	-4.115730	-4.133865	-2.833653
C	-1.120623	-5.634569	3.156190
C	-0.194512	-4.619149	3.839093
C	0.973360	-5.323333	4.545168
C	0.313166	-3.572565	2.839219
C	0.539771	0.103402	5.947747
C	-0.142186	1.254599	5.184262
C	0.841906	1.915146	4.220511
C	-1.402019	0.759261	4.464483
C	5.367415	-3.050713	4.429740
C	4.281783	-2.636775	3.661477
C	6.026608	-2.121629	5.238517
C	3.880803	-1.304784	3.655022
C	5.626435	-0.787396	5.254922
C	4.564116	-0.365869	4.443212
O	4.226181	0.949200	4.443820
C	1.170344	-2.876068	-7.167638
C	1.030381	-2.445848	-5.715693
O	-0.061936	-2.136625	-5.242788
N	2.196813	-2.417705	-5.020739
C	2.331311	-1.690188	-3.772105
C	3.571520	-0.791610	-3.903634
O	4.518681	-1.148166	-4.611553
N	3.516496	0.369477	-3.212548
C	4.542447	1.395388	-3.336985
C	5.471299	1.498117	-2.128694
O	6.616919	1.937115	-2.239456
C	3.901606	2.814532	-3.581060
O	2.722055	2.736559	-4.361734
C	4.886107	3.726381	-4.302972
N	4.883337	1.175131	-0.950822
C	5.644984	1.119419	0.280023
C	6.142769	-0.324450	0.572982
O	7.292237	-0.507645	0.975832
C	4.932580	1.863575	1.415378
O	3.703650	1.302076	1.869320
N	5.299771	-1.332290	0.242614
C	5.795259	-2.692066	0.069224
C	4.729303	-3.606709	-0.554921
C	3.827897	-4.403093	0.406375
C	2.715745	-5.101910	-0.384750
C	4.620050	-5.421208	1.239700
C	2.677861	6.324521	3.390856
C	2.095687	5.068975	3.227955
C	3.264194	6.948541	2.285626
C	2.090980	4.435341	1.987582
C	3.262988	6.332049	1.035770
C	2.672562	5.067692	0.875469
O	2.695245	4.500529	-0.353633
C	-5.169066	-0.771848	4.053578
C	-6.378271	-0.405168	3.210034
O	-6.325429	0.336009	2.234463
C	-4.597923	-2.160599	3.662328
C	-3.979521	-2.136057	2.258450
C	-3.596155	-2.655250	4.712805
N	-7.546738	-1.008413	3.607845
C	-8.754135	-0.935703	2.813777
C	-6.059708	3.565607	1.132806
C	-4.875514	3.344980	2.053465
S	-4.685003	4.823143	3.143755
C	-3.128340	4.416337	4.006046
C	-0.370227	5.255267	-1.859432
C	-1.294463	4.660605	-2.911990
O	-2.259705	5.299833	-3.355950
C	-1.113538	5.586046	-0.565072
S	-1.801588	4.097177	0.273050
N	-1.012428	3.396350	-3.303470
C	-1.782387	2.719536	-4.330612
C	-3.257717	2.451504	-4.007788
O	-4.045114	2.180470	-4.909692
N	-3.613724	2.518396	-2.696976
C	-4.998645	2.420498	-2.296917
C	-5.831844	3.708444	-2.416963
O	-7.045544	3.669787	-2.228480
N	-5.148655	4.845993	-2.690527
C	-2.077555	-0.387525	-1.343936
C	-0.753486	-0.391040	-1.516937
C	0.280206	0.138427	-0.540241
H	-1.650107	-3.231983	-1.332774
H	-0.362161	-4.055040	-0.502714
H	-0.847981	-3.889743	-3.466659
H	0.655641	-4.226463	-2.631819
H	-0.656805	-6.269996	-3.920456
H	0.114980	-6.571199	-2.347061
H	-1.581538	-5.990260	-0.194518
H	-7.213383	-3.057144	-2.001465
H	-6.866796	-4.640126	-2.714227
H	-5.045960	-2.175186	-2.756882
H	-5.554950	-3.129538	-4.154496
H	-3.151164	-3.646113	-2.968769
H	-4.138343	-5.003810	-3.499325
H	-5.614805	-3.409597	-0.208561
H	-1.955391	-5.160500	2.632380
H	-0.565046	-6.216118	2.408756
H	-0.778064	-4.091520	4.608269
H	1.631011	-4.605588	5.047205
H	0.616081	-6.039601	5.295474
H	1.583937	-5.879126	3.822061
H	0.954067	-2.830503	3.327241
H	-0.517120	-3.041445	2.363059
H	0.899765	-4.039056	2.039466
H	-0.454006	2.010568	5.921960
H	0.368424	2.733112	3.669816
H	1.714628	2.307251	4.750913
H	1.215270	1.196047	3.486102
H	-1.884007	1.562780	3.898117
H	-2.133481	0.362669	5.178603
H	-1.155285	-0.039990	3.756987
H	0.871756	-0.677250	5.253766
H	1.137925	-1.984290	-7.802639
H	1.427546	-1.104075	-3.605210
H	2.445254	-2.352159	-2.908280
H	3.668830	3.246787	-2.597115
H	4.483782	4.742479	-4.358422
H	5.847924	3.737806	-3.785343
H	5.040292	3.361136	-5.324704
H	2.017148	2.445889	-3.756625
H	5.162366	1.121328	-4.193705
H	5.594443	1.891091	2.286863
H	4.767004	2.893216	1.072088
H	3.172647	0.896335	1.144277
H	6.570697	1.668340	0.088621
H	4.093482	-3.005218	-1.212767
H	5.240175	-4.330888	-1.206817
H	3.343180	-3.685711	1.078676
H	3.961523	-5.959281	1.932250
H	5.409842	-4.951416	1.833133
H	5.091895	-6.167436	0.586107
H	2.078170	-5.705638	0.272760
H	2.090281	-4.354376	-0.876022
H	3.135366	-5.774535	-1.145537
H	6.153317	-3.087098	1.028203
H	1.644220	4.568865	4.077968
H	3.727571	7.926772	2.395156
H	1.662271	3.448286	1.864684
H	3.714927	6.806581	0.169942
H	2.130827	3.680810	-0.369934
H	-5.438708	-2.871275	3.647965
H	-4.665919	-1.693849	1.529740
H	-3.729552	-3.145508	1.920645
H	-3.065845	-1.530366	2.249412
H	-4.054604	-2.723713	5.707233
H	-3.216956	-3.646192	4.445745
H	-2.738323	-1.978604	4.785490
H	-4.410942	0.001894	3.908109
H	-8.964678	-1.879961	2.294704
H	-6.279928	2.653867	0.572666
H	-5.874941	4.374496	0.421642
H	-5.037576	2.460030	2.673100
H	-3.951416	3.219278	1.488353
H	-2.900879	5.251107	4.673929
H	-3.230215	3.506135	4.603874
H	-2.312654	4.303850	3.287573
H	-0.449109	6.104651	0.129442
H	-1.974230	6.225208	-0.775787
H	-0.657045	3.364426	0.250123
H	0.482769	4.607921	-1.652848
H	-1.785752	3.294192	-5.261726
H	-1.299739	1.758340	-4.526782
H	-5.052713	2.090056	-1.257094
H	-5.500016	1.674244	-2.917200
H	-4.161597	4.871186	-2.937203
H	3.745446	-3.353319	3.051694
H	6.870128	-2.433789	5.850140
H	3.076212	-0.979520	3.005720
H	6.144394	-0.046980	5.856911
H	3.806035	1.140624	3.569344
H	-2.560238	-0.027163	-0.440453
H	5.682508	-4.090447	4.419584
H	2.680727	6.809905	4.362938
H	-5.698083	5.682985	-2.807933
H	-6.963235	3.814259	1.701092
H	-9.619865	-0.676694	3.433798
H	-8.601965	-0.154574	2.067879
H	-7.497099	-1.688447	4.350957
H	-2.348576	-8.074947	-3.084758
H	-1.659440	-8.124571	-1.441295
H	-3.356286	-7.649252	-1.690450
H	0.319553	-3.505832	-7.436876
H	2.101407	-3.413203	-7.371193
H	-6.121337	-5.078672	-0.452323
H	-2.919676	2.769661	-2.002883
H	-0.211706	2.898042	-2.910262
H	3.078716	-2.507814	-5.514209
H	2.608332	0.648495	-2.835120
H	3.981899	0.703577	-0.968088
H	4.312615	-1.135644	0.057410
H	6.678682	-2.644588	-0.579839
H	-5.449049	-0.774116	5.115769
H	0.022994	6.191414	-2.276612
C	0.821433	1.488000	-1.082042
O	1.055175	1.549934	-2.334338
O	0.988370	2.443527	-0.275007
C	1.513664	-0.835946	-0.451700
O	1.362387	-2.022080	-0.782347
O	2.598311	-0.308841	-0.010886
C	-0.269941	0.284946	0.884105
H	0.509985	0.659024	1.543860
H	-1.107587	0.986762	0.927823
H	-0.614383	-0.687895	1.248520
H	1.426021	0.454682	6.486479
H	-0.141623	-0.358906	6.672434
H	-1.535306	-6.347579	3.880147
H	-2.738314	-0.747701	-2.127871
H   -0.362429   -0.772784   -2.454356