214

C	-3.728043	5.274537	4.395493
N	-3.285828	4.061417	3.737211
C	-3.314723	4.133400	2.270876
C	-4.729379	4.048839	1.680563
O	-5.090756	4.859318	0.817032
C	-2.357811	3.001231	1.799502
C	-1.624445	2.536624	3.080245
C	-1.929866	3.635766	4.098308
N	-5.575215	3.067427	2.096094
C	-6.904814	2.976102	1.470445
C	-7.593560	1.834762	2.231031
C	-6.420712	0.939859	2.661123
C	-5.330139	1.953805	3.033797
C	-2.923893	5.370919	-1.809882
C	-3.558437	6.289982	-2.863747
C	-4.012644	7.612365	-2.228684
C	-2.613073	6.536933	-4.047054
C	0.107398	1.023804	-5.732624
C	-0.129447	-0.398812	-5.191055
C	1.108315	-0.910810	-4.444549
C	-1.371197	-0.448518	-4.293886
C	3.895764	5.191072	-3.772748
C	2.942738	4.301907	-3.273765
C	4.929990	4.700059	-4.573733
C	3.040300	2.936097	-3.528109
C	5.031686	3.338597	-4.845593
C	4.100569	2.443281	-4.302762
O	4.251979	1.118004	-4.561722
C	1.008260	1.656880	7.686612
C	0.842713	1.565649	6.178222
O	-0.204780	1.182258	5.664839
N	1.951243	1.907365	5.469818
C	2.156910	1.515222	4.088789
C	3.611621	1.026482	3.992169
O	4.477722	1.548419	4.702027
N	3.831334	0.036734	3.105762
C	5.136472	-0.605450	2.982355
C	5.933331	-0.049559	1.800027
O	7.132671	0.206312	1.877552
C	4.968476	-2.160210	2.835673
O	3.904046	-2.646685	3.634374
C	6.247575	-2.867658	3.266138
N	5.188660	0.118925	0.669452
C	5.774952	0.639863	-0.541284
C	5.629752	2.168899	-0.700799
O	6.245970	2.769266	-1.575907
C	5.322257	-0.110396	-1.798785
O	3.940024	0.056524	-2.108263
N	4.822312	2.769699	0.211541
C	4.803776	4.208754	0.414895
C	3.575188	4.621925	1.240881
C	2.298321	4.938454	0.441238
C	1.071060	4.950857	1.361098
C	2.425156	6.280798	-0.294563
C	4.220526	-4.583134	-4.526036
C	3.046594	-4.202288	-3.871753
C	5.428027	-4.559592	-3.824538
C	3.065602	-3.778573	-2.542841
C	5.466306	-4.139027	-2.496371
C	4.287306	-3.733130	-1.854299
O	4.386777	-3.310423	-0.563877
C	-5.407514	-0.262325	-3.524368
C	-6.371666	-0.928575	-2.558584
O	-6.043004	-1.336382	-1.450010
C	-5.312542	1.263889	-3.242516
C	-4.600762	1.544036	-1.911291
C	-4.631547	1.999743	-4.404092
N	-7.671279	-0.966555	-2.999053
C	-8.751559	-1.439333	-2.164700
C	-4.700202	-5.111277	-1.493350
C	-3.723569	-4.374482	-2.388854
S	-3.366537	-5.372869	-3.902867
C	-1.746569	-4.664876	-4.377365
C	1.480761	-5.465456	0.925099
C	0.607875	-5.330821	2.162163
O	-0.002304	-6.297787	2.643952
C	0.600194	-5.545236	-0.342976
S	-0.390988	-4.021046	-0.650528
N	0.505144	-4.083448	2.692040
C	-0.365339	-3.803593	3.813189
C	-1.880829	-3.937795	3.595194
O	-2.621609	-3.963420	4.578649
N	-2.328584	-4.015100	2.314741
C	-3.721623	-4.326827	2.060120
C	-4.065469	-5.825196	2.018083
O	-5.231402	-6.184792	1.856080
N	-3.029229	-6.686277	2.153381
C	-0.016000	1.822336	-0.902479
C	0.817680	0.803056	-0.673806
C	0.467145	-0.532425	-0.047500
H	-2.895561	2.180038	1.318797
H	-1.661064	3.396387	1.058464
H	-2.008236	1.581087	3.443488
H	-0.553930	2.402662	2.923536
H	-1.891187	3.274168	5.129458
H	-1.207207	4.471370	4.000827
H	-2.937310	5.106499	1.911918
H	-8.331263	1.312897	1.615155
H	-8.112372	2.227853	3.114228
H	-6.090594	0.321919	1.818692
H	-6.662753	0.270186	3.490701
H	-4.325346	1.548620	2.923794
H	-5.430732	2.295811	4.069965
H	-6.796696	2.750689	0.402027
H	-2.651087	4.401104	-2.238802
H	-2.006590	5.823768	-1.409259
H	-4.456101	5.783655	-3.250452
H	-4.517216	8.258130	-2.957881
H	-4.699708	7.430141	-1.395976
H	-3.152286	8.167724	-1.833319
H	-3.080868	7.167975	-4.812704
H	-2.314079	5.596752	-4.523000
H	-1.697659	7.042435	-3.714371
H	-0.305443	-1.061759	-6.052266
H	0.972617	-1.941615	-4.106166
H	2.004826	-0.869506	-5.072143
H	1.300611	-0.301123	-3.554900
H	-1.257305	0.234280	-3.443489
H	-1.535402	-1.451276	-3.886752
H	-2.270879	-0.156484	-4.848491
H	0.289676	1.725966	-4.910974
H	1.223549	0.655788	8.075271
H	1.434472	0.744944	3.807807
H	2.025741	2.365344	3.404683
H	4.778703	-2.385212	1.779668
H	6.178132	-3.935340	3.041742
H	7.117030	-2.446483	2.753293
H	6.388688	-2.748412	4.346010
H	3.078911	-2.508847	3.138401
H	5.703385	-0.370262	3.885411
H	5.877126	0.297544	-2.645949
H	5.566410	-1.171878	-1.684033
H	3.389978	-0.494852	-1.506873
H	6.858658	0.490648	-0.459375
H	3.369822	3.833618	1.977452
H	3.833659	5.509500	1.836224
H	2.158914	4.142959	-0.301769
H	1.539323	6.480676	-0.908082
H	3.296976	6.304871	-0.954319
H	2.522135	7.105146	0.424316
H	0.163754	5.222497	0.810518
H	0.903340	3.968410	1.812344
H	1.195738	5.678674	2.173594
H	4.821273	4.682296	-0.570565
H	2.095237	-4.237826	-4.395390
H	6.350620	-4.860508	-4.315882
H	2.139922	-3.504382	-2.037074
H	6.398261	-4.103127	-1.940098
H	3.635599	-2.718206	-0.328589
H	-6.343040	1.643846	-3.166096
H	-5.043014	0.964502	-1.097070
H	-4.649682	2.606403	-1.650784
H	-3.543970	1.259893	-1.976948
H	-5.156644	1.833804	-5.352399
H	-4.606610	3.079085	-4.217250
H	-3.598058	1.661225	-4.527990
H	-4.426060	-0.728781	-3.404491
H	-9.467535	-0.640122	-1.932559
H	-5.043292	-4.458131	-0.686545
H	-4.243044	-5.996597	-1.045817
H	-4.130934	-3.402139	-2.685675
H	-2.765839	-4.221171	-1.877892
H	-1.292075	-5.344487	-5.103474
H	-1.860333	-3.679803	-4.839608
H	-1.108764	-4.585698	-3.490927
H	1.258641	-5.739796	-1.197133
H	-0.064126	-6.410927	-0.239340
H	0.333330	-1.258529	-0.865751
H	2.186601	-4.634334	0.839530
H	-0.138817	-4.480466	4.641475
H	-0.165698	-2.783055	4.152225
H	-4.017046	-3.896774	1.101209
H	-4.337655	-3.883909	2.845430
H	-2.064127	-6.404486	2.306693
H	2.113154	4.672721	-2.679584
H	5.674910	5.381704	-4.977578
H	2.309163	2.244371	-3.123681
H	5.847299	2.939549	-5.440126
H	3.888979	0.606980	-3.802267
H	-1.064903	1.799049	-0.627397
H	3.816727	6.254972	-3.566556
H	4.192452	-4.906213	-5.563013
H	-3.248512	-7.669120	2.120680
H	-5.595223	-5.433925	-2.040652
H	-9.293277	-2.267621	-2.636500
H	-8.304038	-1.795737	-1.235901
H	-7.877097	-0.620917	-3.922936
H	-3.711075	5.133078	5.481595
H	-3.096412	6.153254	4.155073
H	-4.756018	5.511729	4.101416
H	0.068417	1.991000	8.130557
H	1.817090	2.326975	7.992508
H	-7.426849	3.934971	1.543455
H	-1.680874	-4.003139	1.512054
H	0.854642	-3.293009	2.159452
H	2.824178	2.100747	5.949093
H	3.018260	-0.441789	2.704468
H	4.257019	-0.298830	0.604770
H	4.497030	2.179792	0.965941
H	5.722081	4.523645	0.932909
H	-5.731929	-0.426263	-4.560222
H	2.054858	-6.393898	1.041435
C	1.691659	-1.092450	0.694156
O	1.621525	-1.379466	1.919947
O	2.765703	-1.216201	0.004852
C	-0.810674	-0.530305	0.790191
H	-1.020812	-1.537707	1.149736
H	-0.724961	0.141564	1.648622
H	-1.665963	-0.214611	0.184057
H	0.981382	1.058524	-6.391972
H	-0.759469	1.388978	-6.297771
H	-3.612262	5.207931	-0.975432
H	0.335578	2.728525	-1.388400
H	1.854784	0.915079	-0.982313