80

C	-0.988387	1.790913	-1.859987
C	-0.088391	0.741726	-1.182082
C	1.016677	1.472665	-0.362084
C	0.413860	2.475792	0.636462
C	-0.398355	3.559317	-0.108892
C	-1.525432	2.883132	-0.918897
C	0.516881	-0.201184	-2.217017
O	1.855071	2.178155	-1.252061
C	-0.896006	4.659351	0.813646
C	-0.379380	5.891390	0.749792
C	-1.982015	4.325923	1.810867
O	-0.874117	-0.136355	-0.288089
O	4.078179	0.775661	-1.236308
C	5.284609	1.192112	-1.098528
O	6.244746	0.468730	-0.746804
C	5.528573	2.674274	-1.420619
O	0.679300	-1.966534	0.899610
C	0.793382	-2.359897	2.175157
C	-0.071817	-1.704117	3.230051
O	1.621514	-3.209531	2.459266
O	-2.523466	0.615215	1.665828
C	-3.724523	0.923155	1.591249
C	-4.463880	1.377100	2.824176
N	-4.413008	0.912337	0.435333
O	-3.234971	-0.780114	-1.663517
C	-4.123217	-1.806399	-1.464316
C	-3.869783	-2.885995	-0.612588
C	-4.856530	-3.857187	-0.422819
C	-6.091648	-3.761573	-1.067742
C	-6.327787	-2.685764	-1.927502
C	-5.352577	-1.711488	-2.128301
N	4.073122	-3.601700	0.879637
C	4.441877	-2.429912	0.296160
N	3.512460	-1.545383	-0.040389
N	5.727018	-2.182965	0.021886
C	6.779855	-3.142918	0.298578
H	1.586918	0.712108	0.193187
H	-2.060632	3.633992	-1.512877
H	0.295644	4.017585	-0.821698
H	1.237333	2.943109	1.186076
H	-6.852324	-4.519499	-0.911443
H	-7.278018	-2.602618	-2.447257
H	-5.521780	-0.873279	-2.797026
H	-4.653617	-4.693056	0.240692
H	-2.912706	-2.960927	-0.103016
H	-2.381278	-0.890350	-1.187490
H	-1.429771	0.364881	0.357955
H	0.023802	-1.249251	0.662564
H	-0.979422	-1.248837	2.826084
H	0.517987	-0.914756	3.708711
H	-0.318514	-2.445093	3.991429
H	-4.036305	2.326243	3.159329
H	-4.302637	0.647426	3.621254
H	-5.537163	1.507830	2.667714
H	-5.402217	1.100785	0.423804
H	-3.986292	0.526085	-0.406269
H	6.926396	-3.312550	1.375154
H	7.713185	-2.744411	-0.100890
H	6.584267	-4.105665	-0.187709
H	4.784897	-4.115784	1.374435
H	3.148088	-3.624399	1.313056
H	2.545193	-1.749045	0.178063
H	3.760830	-0.658010	-0.559304
H	5.959587	-1.222557	-0.327307
H	4.723302	3.284924	-1.003773
H	5.514028	2.810340	-2.507557
H	6.496554	2.999528	-1.036605
H	2.727175	1.703249	-1.316053
H	-0.215755	1.955854	1.370200
H	-1.812909	1.286568	-2.376282
H	-0.367297	2.265549	-2.626728
H	-2.264447	2.455300	-0.233422
H	1.201865	0.352436	-2.859828
H	1.079154	-1.006406	-1.734870
H	-0.268047	-0.652508	-2.832590
H	-0.708821	6.686111	1.414415
H	0.396080	6.146225	0.032752
H	-1.720388	3.449367	2.415355
H	-2.168810	5.165353	2.486250
H	-2.926235	4.087830	1.304253