80

C	-3.859102	-2.884632	-0.884188
C	-4.089982	-1.674685	-1.547228
C	-5.313349	-1.458958	-2.195372
C	-6.301410	-2.442151	-2.167580
C	-6.087690	-3.650294	-1.497942
C	-4.858378	-3.862546	-0.867682
O	-3.191914	-0.635128	-1.563662
N	-4.459011	0.649010	0.763447
C	-3.764133	0.605339	1.915510
C	-4.537304	0.792804	3.198628
O	-2.533035	0.448593	1.954295
O	-0.863832	-0.269194	-0.036075
C	1.109028	0.294049	-2.476735
C	0.735119	1.484225	-1.609327
C	0.628442	1.262207	-0.151409
C	0.087956	2.327576	0.762244
C	-0.445560	3.568592	0.008192
C	-1.258262	3.088794	-1.211383
C	-0.368619	2.354008	-2.232191
O	1.865015	2.316126	-1.238936
C	-1.206007	4.518741	0.919143
C	-2.502463	4.049071	1.534816
C	-0.729389	5.744786	1.160666
O	3.959403	1.011566	-0.975293
C	5.179392	1.380507	-0.753167
C	5.455394	2.885633	-0.714956
O	6.113706	0.583098	-0.556288
O	0.842834	-1.876487	0.921950
C	0.914357	-2.551510	2.017635
O	1.784678	-3.411731	2.255058
C	-0.110041	-2.263560	3.115862
N	4.067283	-3.677904	0.696088
C	4.402786	-2.482346	0.164625
N	5.672667	-2.195714	-0.168946
C	6.769949	-3.121204	0.027291
N	3.447520	-1.593098	-0.081880
H	1.300037	0.525519	0.275319
H	-1.748326	3.939103	-1.697583
H	0.426590	4.109329	-0.370856
H	0.886803	2.613448	1.455558
H	-6.857176	-4.414905	-1.476416
H	-7.244698	-2.260455	-2.675068
H	-5.469306	-0.520049	-2.717821
H	-4.668528	-4.798036	-0.349185
H	-2.910227	-3.055700	-0.382612
H	-2.336625	-0.835417	-1.119720
H	-1.477454	0.013537	0.686725
H	-0.256661	-0.989416	0.385386
H	-0.868169	-1.537601	2.814648
H	0.420111	-1.881214	3.993895
H	-0.591229	-3.198187	3.418463
H	-4.185209	1.702311	3.693236
H	-4.316254	-0.045141	3.864225
H	-5.617660	0.863619	3.052960
H	-5.466109	0.672536	0.772417
H	-3.994888	0.413599	-0.114215
H	6.970249	-3.329155	1.088739
H	7.670244	-2.675286	-0.397533
H	6.586984	-4.071756	-0.487174
H	4.809132	-4.226212	1.102200
H	3.156955	-3.701641	1.200086
H	2.482783	-1.779803	0.230701
H	3.694160	-0.665985	-0.459456
H	5.873477	-1.207698	-0.407947
H	4.913548	3.334691	0.124301
H	5.086088	3.361100	-1.628935
H	6.522984	3.073976	-0.601434
H	2.781818	1.785270	-1.167457
H	-0.693717	1.873778	1.378241
H	-0.994976	1.726169	-2.873715
H	0.144407	3.071733	-2.882103
H	-2.055775	2.414434	-0.876510
H	1.376964	0.643829	-3.478585
H	1.958514	-0.256262	-2.068913
H	0.256452	-0.384054	-2.559591
H	-1.254921	6.445722	1.803554
H	0.203665	6.090503	0.724460
H	-2.348796	3.171760	2.173675
H	-2.954365	4.836914	2.143233
H	-3.229352	3.753622	0.768739