279			
			
C	2.550188	-0.189761	-6.092222
C	1.663754	-1.426777	-5.945362
O	1.520077	-2.230781	-6.866356
N	1.048310	-1.578137	-4.729043
C	0.124878	-2.678180	-4.481309
C	-1.324728	-2.156377	-4.418862
O	-1.607967	-1.157485	-3.743978
C	0.483507	-3.463391	-3.189628
C	-0.238490	-4.791381	-3.092340
C	0.187787	-5.886512	-3.860088
C	-1.357901	-4.949442	-2.265081
C	-0.500586	-7.099682	-3.826708
C	-2.053621	-6.160648	-2.236950
C	-1.633794	-7.236325	-3.021335
N	-2.291530	-2.823125	-5.098872
C	-2.161337	-4.024496	-5.944837
C	-3.609660	-4.510158	-6.086597
C	-4.421736	-3.206132	-6.065227
C	-3.682580	-2.343452	-5.032963
C	3.539752	2.804553	-2.754753
C	4.744287	1.851526	-2.795017
O	5.883976	2.319408	-2.758702
C	2.078270	2.275010	-2.687723
C	1.758630	1.103778	-1.761886
O	1.412125	1.452660	-0.524316
O	1.821858	-0.061037	-2.150678
N	4.509445	0.514168	-2.863538
C	5.601422	-0.449026	-2.819911
C	5.127756	-1.892933	-3.113494
C	4.928928	-2.761823	-1.904126
C	3.762548	-2.985058	-1.208008
C	5.946248	-3.532037	-1.234880
C	5.312567	-4.204148	-0.147911
C	7.322746	-3.733059	-1.443594
N	3.985624	-3.850488	-0.162528
C	6.012971	-5.060544	0.709516
C	8.023015	-4.576955	-0.588327
C	7.372558	-5.234585	0.477869
C	9.811148	1.684935	-1.269804
C	9.483868	0.556948	-0.284134
C	10.703129	-0.155040	0.333342
C	11.573199	0.793981	1.171564
C	10.257850	-1.362325	1.171860
C	2.501765	7.984432	-0.880456
C	3.922786	7.609906	-0.496784
O	4.901556	8.173513	-0.983602
N	4.036596	6.584007	0.402452
C	5.331362	6.115420	0.874460
C	5.805785	4.783049	0.263786
C	7.277248	4.540848	0.626910
C	4.937410	3.599648	0.704969
C	-3.234295	-4.446171	5.379641
C	-2.693142	-4.561375	4.094047
C	-3.249884	-3.184887	5.986103
C	-2.183347	-3.453569	3.412738
C	-2.748063	-2.067195	5.321717
C	-2.210067	-2.187020	4.026117
O	-1.754580	-1.057667	3.440057
C	0.053409	-6.882177	7.006365
C	1.131230	-5.799879	7.167736
C	0.702516	-4.499505	6.458844
C	2.488428	-6.318893	6.668526
C	1.600320	-3.289543	6.737706
C	-9.128712	-1.538915	-2.470156
C	-8.661621	-2.978725	-2.209818
C	-9.512504	-3.629510	-1.100690
C	-7.159863	-3.006204	-1.887675
C	-9.251182	-5.123641	-0.881398
C	-6.846767	-3.026955	4.911203
C	-7.246566	-2.141770	3.754298
C	-8.594294	-1.908009	3.452244
C	-6.270140	-1.509299	2.970571
C	-8.961697	-1.058747	2.406310
C	-6.631500	-0.658501	1.925685
C	-7.979964	-0.427683	1.640540
C	2.514460	-6.593686	2.182204
C	2.487445	-5.274766	2.651691
C	1.613948	-6.949321	1.167853
C	1.599336	-4.330663	2.126597
C	0.719122	-6.028512	0.639703
C	0.667579	-4.674553	1.097869
O	-0.187562	-3.828445	0.595827
C	-3.842583	8.262907	2.242523
C	-2.512854	8.506660	1.524682
C	-1.568207	7.283309	1.467258
O	-2.125959	6.138034	1.671293
O	-0.368826	7.482014	1.209954
C	-3.757911	5.538475	4.932594
C	-2.278797	5.467894	5.360703
O	-1.976224	5.357449	6.553364
C	-4.493492	4.236061	5.297171
C	-4.005653	2.981641	4.545216
C	-4.664142	1.718080	5.116875
C	-4.237557	3.072298	3.028961
N	-1.366120	5.500552	4.356105
C	0.075109	5.462049	4.603192
C	0.868960	4.955259	3.392202
C	2.370462	5.087495	3.683795
C	0.503867	3.510658	3.031493
C	-4.014513	5.497796	-1.192948
C	-2.815509	4.633088	-1.392410
C	-2.446132	3.813297	-2.431572
N	-1.805381	4.523179	-0.462861
C	-0.889438	3.662448	-0.965596
N	-1.238624	3.203901	-2.161921
C	-5.104810	5.584877	-6.180534
C	-4.912287	4.159558	-5.701335
C	-3.728357	3.464343	-5.989963
C	-5.873273	3.526820	-4.902889
C	-3.484372	2.197786	-5.458982
C	-5.647170	2.249400	-4.384072
C	-4.445681	1.591053	-4.645364
O	-0.443696	1.404205	-4.346418
O	-0.326691	-1.400716	1.169833
H	3.308187	-0.133710	-5.305875
H	1.927986	0.709069	-6.017558
H	1.565290	-3.629634	-3.212283
H	0.260883	-2.851858	-2.311177
H	1.071291	-5.784702	-4.486681
H	-1.643477	-4.143314	-1.598126
H	-0.149429	-7.937590	-4.423611
H	-2.913679	-6.267454	-1.581623
H	-2.172335	-8.179986	-2.990430
H	0.248371	-3.338080	-5.341731
H	-3.760014	-5.104276	-6.992805
H	-3.869897	-5.133914	-5.224444
H	-4.386991	-2.725663	-7.050013
H	-5.473243	-3.354152	-5.803716
H	-3.725972	-1.274961	-5.253929
H	-4.075401	-2.485310	-4.018313
H	-1.521404	-4.772441	-5.477628
H	1.740018	1.937964	-3.668769
H	1.433923	3.113659	-2.417061
H	3.736736	3.459707	-1.901831
H	5.874714	-2.365558	-3.762720
H	4.206160	-1.856794	-3.706422
H	2.779269	-2.571917	-1.376093
H	7.834478	-3.236992	-2.265007
H	9.086188	-4.740672	-0.745578
H	5.498972	-5.572426	1.517100
H	7.944813	-5.891525	1.127711
H	6.102323	-0.409907	-1.844408
H	2.468176	9.061937	-1.054226
H	5.737227	4.876701	-0.827728
H	7.640140	3.613229	0.173751
H	7.915934	5.359464	0.276150
H	7.406771	4.455955	1.713953
H	5.256412	2.678567	0.209035
H	3.879975	3.753373	0.464160
H	5.008877	3.435858	1.787431
H	5.298856	6.025292	1.969222
H	-2.656318	-5.532033	3.605963
H	-3.658339	-3.066548	6.987312
H	-1.754252	-3.572120	2.420044
H	-2.755018	-1.086502	5.787052
H	-1.327549	-1.216703	2.558711
H	1.227538	-5.578950	8.243540
H	2.447811	-6.528066	5.593040
H	3.291466	-5.594005	6.836356
H	2.769470	-7.246657	7.181803
H	0.657701	-4.678026	5.376700
H	-0.322774	-4.254277	6.762064
H	1.673420	-3.085609	7.813798
H	2.617157	-3.433444	6.357324
H	1.195347	-2.393624	6.257047
H	-0.086039	-7.133438	5.948388
H	-8.823134	-3.557228	-3.133631
H	-6.779770	-4.026577	-1.780524
H	-6.579942	-2.522090	-2.681356
H	-6.951188	-2.473400	-0.952793
H	-9.344325	-3.086470	-0.160744
H	-10.573851	-3.488555	-1.349865
H	-9.395001	-5.691869	-1.808731
H	-8.232000	-5.312552	-0.531419
H	-9.934298	-5.535658	-0.130708
H	-8.980211	-0.917813	-1.578852
H	-5.965768	-3.628812	4.672916
H	-7.661980	-3.698886	5.199403
H	-9.365032	-2.394753	4.046394
H	-5.219142	-1.683514	3.184917
H	-10.013984	-0.887372	2.193179
H	-5.858263	-0.171555	1.338801
H	-8.260440	0.243324	0.833332
H	1.615095	-7.967525	0.780863
H	3.174740	-4.966848	3.438194
H	0.028015	-6.319321	-0.144883
H	1.592114	-3.313151	2.507844
H	-0.218581	-2.426529	0.990288
H	-2.697971	8.807708	0.483153
H	-1.958046	9.336266	1.977428
H	-4.361168	7.406797	1.806120
H	-4.368848	4.076641	6.375072
H	-5.570704	4.366655	5.114799
H	-2.923746	2.893759	4.713933
H	-4.268028	0.817534	4.636424
H	-4.487937	1.631031	6.195606
H	-5.750014	1.730073	4.955633
H	-3.887117	2.161644	2.531152
H	-3.710852	3.917334	2.576041
H	-5.307706	3.181260	2.806140
H	-4.206656	6.371654	5.486134
H	0.621769	5.603810	2.540271
H	2.968490	4.719267	2.843204
H	2.657586	4.497430	4.563795
H	2.653088	6.129691	3.872779
H	1.077679	3.171989	2.161923
H	0.727562	2.826119	3.859281
H	-0.559852	3.417950	2.796111
H	0.245696	4.824843	5.478937
H	-4.735353	5.321301	-1.996649
H	-4.507495	5.289617	-0.237123
H	-2.980981	3.624025	-3.348193
H	0.007185	3.387905	-0.430813
H	-4.991872	5.628327	-7.272924
H	-6.130076	5.908115	-5.963709
H	-6.798651	4.048762	-4.668185
H	-2.964490	3.939373	-6.601394
H	-6.396759	1.785104	-3.748577
H	-2.515102	1.726921	-5.597870
H	-4.227543	0.633714	-4.182694
H	10.472305	1.329480	-2.070147
H	10.306272	2.530646	-0.781126
H	8.870365	-0.194133	-0.797986
H	8.855199	0.952059	0.526562
H	11.321448	-0.530565	-0.497579
H	12.432701	0.265702	1.600732
H	11.959263	1.629051	0.578737
H	10.994930	1.215901	2.003162
H	11.119431	-1.902843	1.581735
H	9.664923	-2.068871	0.581749
H	9.638023	-1.040596	2.017748
H	-0.679780	2.017891	-3.613804
H	6.042692	6.905929	0.621135
H	2.251924	7.492487	-1.827508
H	1.739755	7.711396	-0.143384
H	-4.497910	9.141570	2.178577
H	-10.193083	-1.502176	-2.730336
H	3.031996	-0.228896	-7.068889
H	6.347036	-0.130348	-3.556883
H	3.618487	3.443549	-3.640315
H	3.211307	-7.318548	2.593789
H	0.326976	-7.803403	7.535340
H	-6.585324	-2.426786	5.791301
H	0.434164	6.467403	4.873249
H	-3.622074	-5.318060	5.898692
H	-1.767515	5.062183	0.433498
H	-0.812512	0.549022	-4.063829
H	-0.913358	-6.542136	7.393498
H	-1.676734	5.672749	3.392469
H	1.124181	-0.848376	-4.026628
H	3.193417	6.212230	0.814398
H	3.561778	0.157752	-2.807267
H	8.895306	2.059758	-1.738068
H	3.284860	-4.135032	0.517232
C	0.181942	-0.719682	0.046303
C	1.023296	0.488491	0.534360
H	0.352084	1.102165	1.140151
H	0.802217	-1.396103	-0.541456
C	4.345953	-0.674598	3.048143
C	3.056119	-0.553475	3.568221
C	4.570138	-0.406843	1.698278
C	2.000822	-0.160929	2.745419
H	2.867219	-0.762793	4.617441
C	3.513175	-0.019703	0.871977
H	5.566633	-0.509748	1.278909
C	2.218287	0.109020	1.385712
H	0.997425	-0.085994	3.150967
H	3.708505	0.171372	-0.176196
H	-0.616790	-0.337859	-0.608236
H	5.169238	-0.978925	3.688673
H	-3.758645	6.564663	-1.190702
H	-3.683071	8.043628	3.302028
H	-3.844754	5.758518	3.865832
H	-8.565742	-1.079176	-3.289776
H	-1.730206	-3.758016	-6.919740
C	-4.108157	6.568471	-5.537665
H	-3.075089	6.290061	-5.764672
H	-4.271975	7.588665	-5.903177
H	-4.211383	6.573831	-4.448651