279			
			
C	2.284550	0.322849	-6.302407
C	1.355069	-0.895089	-6.281483
O	1.134471	-1.571894	-7.285379
N	0.799750	-1.172962	-5.061075
C	-0.190222	-2.224574	-4.868688
C	-1.597066	-1.592552	-4.777215
O	-1.795936	-0.618011	-4.041183
C	0.113197	-3.035272	-3.582629
C	-0.834913	-4.195460	-3.368731
C	-0.627503	-5.421328	-4.019169
C	-1.950511	-4.065986	-2.530052
C	-1.515620	-6.485078	-3.847805
C	-2.841287	-5.126530	-2.358263
C	-2.630038	-6.338111	-3.019253
N	-2.613518	-2.129130	-5.495834
C	-2.586217	-3.309784	-6.372942
C	-4.071489	-3.661891	-6.533880
C	-4.766695	-2.293093	-6.466734
C	-3.958895	-1.537277	-5.402810
C	3.528106	2.894602	-2.707480
C	4.680729	1.886461	-2.837938
O	5.841403	2.289034	-2.726256
C	2.036189	2.479495	-2.472314
C	1.695798	1.114177	-1.899103
O	1.395256	1.064696	-0.602623
O	1.662748	0.105624	-2.606422
N	4.387920	0.586484	-3.087169
C	5.437653	-0.414112	-3.204005
C	4.874227	-1.821632	-3.520263
C	4.803436	-2.757054	-2.346922
C	3.700798	-3.093378	-1.596356
C	5.908061	-3.497175	-1.788741
C	5.392446	-4.260461	-0.700371
C	7.274520	-3.606890	-2.101997
N	4.049098	-3.992491	-0.612121
C	6.198546	-5.112884	0.062264
C	8.078657	-4.454132	-1.346459
C	7.544871	-5.198747	-0.273180
C	9.792509	1.365559	-1.608256
C	9.560989	0.216707	-0.620528
C	10.836086	-0.495526	-0.128373
C	11.759854	0.437851	0.668559
C	10.474009	-1.736559	0.700423
C	2.792740	7.878635	-0.249797
C	4.208839	7.412608	0.040816
O	5.193890	7.994949	-0.410522
N	4.308687	6.287557	0.813370
C	5.597176	5.716404	1.178298
C	5.994838	4.452370	0.393011
C	7.470145	4.119005	0.652666
C	5.099453	3.256462	0.734673
C	-3.265834	-4.913173	4.876063
C	-2.713397	-4.809236	3.594260
C	-3.088582	-3.848916	5.769033
C	-1.999319	-3.678197	3.201236
C	-2.378813	-2.712267	5.392510
C	-1.817275	-2.604732	4.100828
O	-1.153549	-1.490248	3.789079
C	-0.034202	-7.643364	6.097517
C	0.753931	-6.563953	6.853950
C	0.828673	-5.271192	6.018248
C	2.140177	-7.089876	7.256448
C	1.469980	-4.074579	6.727594
C	-9.304222	-0.933540	-2.370730
C	-8.474433	-2.220098	-2.495188
C	-9.107867	-3.353366	-1.663146
C	-7.012002	-1.955348	-2.107052
C	-8.473422	-4.733651	-1.865838
C	-6.825431	-3.305304	4.709972
C	-7.615564	-2.436025	3.761085
C	-8.890120	-2.810401	3.318606
C	-7.084488	-1.221622	3.298629
C	-9.619169	-1.998980	2.445388
C	-7.806663	-0.408141	2.426943
C	-9.080363	-0.792590	1.997612
C	2.260839	-6.933975	1.235203
C	2.331703	-5.790361	2.038772
C	1.483887	-6.883147	0.072911
C	1.650411	-4.617680	1.697833
C	0.798246	-5.725944	-0.282484
C	0.866602	-4.563171	0.520142
O	0.210346	-3.470900	0.132391
C	-3.415284	8.075370	3.141816
C	-2.113676	8.314085	2.373564
C	-1.249779	7.051535	2.144094
O	-1.863188	5.924433	2.278332
O	-0.058383	7.209835	1.829465
C	-3.355758	5.074055	5.519787
C	-1.864301	4.933767	5.883097
O	-1.521096	4.723263	7.051082
C	-4.088814	3.737984	5.752141
C	-3.644018	2.587119	4.826300
C	-4.230355	1.247703	5.295493
C	-3.997199	2.847758	3.353813
N	-0.990586	5.007258	4.847098
C	0.455483	4.877470	5.027675
C	1.175549	4.474083	3.733931
C	2.692103	4.502901	3.971936
C	0.724411	3.097592	3.232257
C	-3.835813	5.708541	-0.559419
C	-2.716581	4.772194	-0.872404
C	-2.425023	4.055339	-2.007733
N	-1.717926	4.460350	0.023414
C	-0.885077	3.586968	-0.591892
N	-1.276580	3.313446	-1.830556
C	-5.101174	6.380516	-5.460403
C	-4.988196	4.907144	-5.123899
C	-3.861708	4.169369	-5.517355
C	-5.971340	4.260072	-4.364927
C	-3.695502	2.839773	-5.129853
C	-5.823280	2.922655	-3.989020
C	-4.678731	2.215745	-4.356490
O	-0.566938	1.982451	-4.317685
O	0.181078	-1.566516	1.669647
H	3.120287	0.201510	-5.607445
H	1.724610	1.213930	-5.998742
H	1.142134	-3.400281	-3.666594
H	0.075588	-2.360712	-2.722990
H	0.246366	-5.544542	-4.655270
H	-2.103210	-3.135929	-1.992055
H	-1.331781	-7.429502	-4.353614
H	-3.691129	-5.010229	-1.691562
H	-3.318248	-7.166770	-2.876088
H	-0.113901	-2.868865	-5.746247
H	-4.269535	-4.208821	-7.460401
H	-4.389700	-4.289805	-5.694288
H	-4.685467	-1.782276	-7.433273
H	-5.828063	-2.358032	-6.211697
H	-3.912562	-0.460016	-5.576506
H	-4.360247	-1.690088	-4.393074
H	-2.019431	-4.125461	-5.922024
H	1.487614	2.481050	-3.417429
H	1.575991	3.243398	-1.844780
H	3.845568	3.543051	-1.888515
H	5.513290	-2.274340	-4.288666
H	3.884344	-1.725840	-3.982089
H	2.675930	-2.764107	-1.690061
H	7.698405	-3.040531	-2.927718
H	9.133946	-4.550859	-1.588255
H	5.777977	-5.688594	0.881443
H	8.197510	-5.852247	0.299561
H	6.028253	-0.441229	-2.281113
H	2.795709	8.969492	-0.299181
H	5.883451	4.677370	-0.675422
H	7.774466	3.242239	0.072887
H	8.123965	4.952654	0.371724
H	7.645367	3.897484	1.713744
H	5.354256	2.391866	0.115977
H	4.039453	3.478505	0.569442
H	5.213221	2.961969	1.785152
H	5.593914	5.493005	2.254141
H	-2.838152	-5.623421	2.883895
H	-3.506257	-3.906647	6.772265
H	-1.581126	-3.610130	2.201829
H	-2.234962	-1.883968	6.079768
H	-0.646447	-1.548625	2.874771
H	0.202885	-6.329659	7.778724
H	2.744253	-7.308438	6.366714
H	2.693783	-6.366013	7.862736
H	2.059356	-8.016493	7.837728
H	1.372923	-5.482296	5.087327
H	-0.186686	-4.994171	5.713190
H	0.951678	-3.847729	7.667470
H	2.526388	-4.246315	6.962921
H	1.413373	-3.181640	6.098418
H	0.476976	-7.915941	5.166090
H	-8.495407	-2.532569	-3.551642
H	-6.379500	-2.836151	-2.254275
H	-6.587085	-1.143188	-2.707045
H	-6.934427	-1.662818	-1.053420
H	-9.059670	-3.081864	-0.599663
H	-10.176005	-3.414240	-1.915401
H	-8.495149	-5.029744	-2.921815
H	-7.430170	-4.755188	-1.537117
H	-9.009664	-5.499884	-1.295589
H	-9.313149	-0.579713	-1.332902
H	-5.878630	-3.635051	4.269555
H	-7.391731	-4.195561	5.000601
H	-9.317691	-3.749086	3.664066
H	-6.096134	-0.911824	3.627696
H	-10.609337	-2.308538	2.120266
H	-7.374079	0.527747	2.084880
H	-9.647127	-0.154343	1.325227
H	1.412825	-7.758005	-0.570033
H	2.928004	-5.803072	2.948710
H	0.196476	-5.690067	-1.183742
H	1.704341	-3.734105	2.326034
H	0.261555	-2.625713	0.831450
H	-2.334195	8.727843	1.378678
H	-1.485180	9.061668	2.870839
H	-4.003474	7.291343	2.660449
H	-3.915771	3.446075	6.795093
H	-5.172273	3.892991	5.638303
H	-2.551358	2.506023	4.898460
H	-3.828363	0.417403	4.704520
H	-3.987779	1.053407	6.346579
H	-5.324875	1.237826	5.199888
H	-3.682011	2.008493	2.724451
H	-3.514259	3.748129	2.963278
H	-5.083099	2.965864	3.231454
H	-3.775098	5.836275	6.186274
H	0.928675	5.225326	2.970907
H	3.237023	4.209368	3.068251
H	2.982688	3.798856	4.762143
H	3.034857	5.501337	4.268412
H	1.242660	2.829385	2.305096
H	0.948354	2.314907	3.967162
H	-0.351386	3.078843	3.037524
H	0.628595	4.139166	5.819670
H	-4.570813	5.686275	-1.369433
H	-4.343021	5.435382	0.372241
H	-2.978280	4.026644	-2.932528
H	-0.024531	3.157966	-0.099525
H	-5.006748	6.518840	-6.546666
H	-6.101918	6.739863	-5.191369
H	-6.852637	4.815142	-4.050108
H	-3.080263	4.653597	-6.098446
H	-6.588144	2.445458	-3.381747
H	-2.764987	2.324686	-5.350335
H	-4.520842	1.199828	-4.008112
H	10.367805	1.026647	-2.479061
H	10.340099	2.197872	-1.153447
H	8.909402	-0.530466	-1.091370
H	9.004665	0.591213	0.250695
H	11.389214	-0.834860	-1.018880
H	12.661032	-0.089891	1.002711
H	12.081622	1.301527	0.078266
H	11.248431	0.817868	1.561814
H	11.370893	-2.283018	1.016044
H	9.837876	-2.422876	0.132166
H	9.923942	-1.452819	1.606121
H	-0.779001	2.442483	-3.471878
H	6.332080	6.505671	0.998601
H	2.496035	7.507270	-1.237421
H	2.042214	7.549867	0.476360
H	-4.021896	8.989144	3.194733
H	-10.344137	-1.094699	-2.678433
H	2.665221	0.446824	-7.316196
H	6.127392	-0.093040	-3.994728
H	3.562437	3.518017	-3.607096
H	2.796213	-7.838341	1.509419
H	-0.145940	-8.555512	6.696714
H	-6.565658	-2.758258	5.623168
H	0.872987	5.829263	5.391533
H	-3.821311	-5.799174	5.171177
H	-1.616017	4.908709	0.963774
H	-0.905448	1.082677	-4.168719
H	-1.032995	-7.283808	5.829111
H	-1.330747	5.271391	3.915103
H	0.934659	-0.520043	-4.293587
H	3.463793	5.898023	1.205023
H	3.422296	0.282699	-3.138058
H	8.837052	1.756657	-1.972792
H	3.411488	-4.365356	0.081459
C	0.887858	-0.239321	-0.135681
C	0.878410	-0.379263	1.387718
H	0.326635	0.480957	1.803875
H	1.490885	-1.027302	-0.584160
C	4.718567	-0.531775	3.427009
C	3.511278	-0.605358	4.129423
C	4.695066	-0.392521	2.041259
C	2.299286	-0.544055	3.446838
H	3.515169	-0.716237	5.211035
C	3.475075	-0.320088	1.359060
H	5.625005	-0.342164	1.481275
C	2.261484	-0.394545	2.049715
H	1.361625	-0.629400	3.989442
H	3.488972	-0.205347	0.280492
H	-0.134686	-0.333342	-0.507421
H	5.666561	-0.584757	3.956365
H	-3.489072	6.742274	-0.438785
H	-3.213495	7.750892	4.166527
H	-3.476191	5.419158	4.490181
H	-8.890256	-0.130582	-2.990413
H	-2.125504	-3.058805	-7.338331
C	-4.038647	7.247084	-4.757445
H	-3.027384	6.933587	-5.032088
H	-4.151724	8.302577	-5.029800
H	-4.120841	7.163241	-3.669775