279			
			
C	2.707778	-2.402666	-5.533578
C	1.390945	-3.150721	-5.291900
O	0.778468	-3.685330	-6.216168
N	0.929417	-3.172791	-4.006624
C	-0.408781	-3.670601	-3.703615
C	-1.454215	-2.702053	-4.301884
O	-1.274689	-1.471056	-4.247475
C	-0.583352	-3.802314	-2.168681
C	-1.840141	-4.545296	-1.767337
C	-1.878695	-5.946835	-1.814138
C	-2.989354	-3.858931	-1.357828
C	-3.044880	-6.641583	-1.488598
C	-4.157232	-4.550058	-1.033775
C	-4.192323	-5.943867	-1.105188
N	-2.582877	-3.210008	-4.847728
C	-2.927079	-4.632954	-5.086843
C	-4.401459	-4.570457	-5.502651
C	-4.510340	-3.218517	-6.223981
C	-3.609948	-2.302188	-5.386438
C	4.396009	0.893944	-2.819521
C	5.273192	-0.366565	-2.688268
O	6.486226	-0.304742	-2.902001
C	3.188242	0.890295	-3.786288
C	1.993584	0.012115	-3.445759
O	1.599362	1.118124	-0.199255
O	1.967697	-0.833212	-2.556653
N	4.654413	-1.509115	-2.267199
C	5.407104	-2.725101	-1.970580
C	4.709404	-4.031102	-2.365836
C	3.653794	-4.546823	-1.426057
C	3.139215	-3.969111	-0.285697
C	3.027970	-5.840411	-1.533938
C	2.149575	-5.978225	-0.420995
C	3.130837	-6.899720	-2.453697
N	2.239309	-4.822474	0.318279
C	1.385080	-7.132506	-0.210166
C	2.375442	-8.047964	-2.248945
C	1.512329	-8.161475	-1.137613
C	9.990272	-1.542645	-0.462345
C	9.507867	-1.924626	0.940999
C	10.596997	-2.481458	1.878567
C	11.696888	-1.451833	2.178524
C	9.975287	-2.999235	3.183841
C	4.854623	6.447170	-2.208861
C	6.092604	5.892623	-1.526047
O	7.229398	6.267313	-1.806539
N	5.854466	4.928035	-0.579232
C	6.931034	4.331132	0.197475
C	7.312067	2.896441	-0.210923
C	8.666540	2.520734	0.405793
C	6.229469	1.887529	0.184007
C	-4.549420	-2.076204	5.886028
C	-4.010273	-2.611280	4.711476
C	-4.201079	-0.771305	6.251679
C	-3.143771	-1.871947	3.906485
C	-3.337260	-0.016708	5.460418
C	-2.795404	-0.558357	4.278470
O	-1.972865	0.223365	3.552878
C	-2.197582	-4.877722	8.337501
C	-0.820689	-4.196856	8.317467
C	-0.817533	-3.006239	7.338256
C	0.280287	-5.219671	7.995621
C	0.436593	-2.128206	7.400889
C	-8.990280	0.430894	-2.991406
C	-8.544938	-0.945850	-2.475965
C	-9.352109	-1.335698	-1.221496
C	-7.028970	-0.963162	-2.227269
C	-9.106356	-2.759947	-0.712254
C	-7.559646	0.139346	4.739976
C	-7.496267	0.816299	3.390626
C	-8.656587	1.270702	2.751176
C	-6.262000	1.024632	2.756734
C	-8.591379	1.925109	1.518711
C	-6.191400	1.678161	1.526541
C	-7.356227	2.133967	0.903084
C	0.438619	-6.421823	3.856569
C	0.973462	-5.130045	3.821459
C	-0.688866	-6.689628	3.063433
C	0.411727	-4.128583	3.024723
C	-1.261579	-5.709691	2.261302
C	-0.740496	-4.377302	2.211115
O	-1.294916	-3.469762	1.464869
C	-1.250143	9.199301	0.080003
C	0.247126	9.382592	0.359729
C	1.080815	8.162282	-0.093628
O	0.586949	7.027554	0.277354
O	2.116363	8.341755	-0.748416
C	-2.085456	7.267312	3.279352
C	-0.738444	6.829153	3.890099
O	-0.587303	6.801036	5.116081
C	-3.276014	6.689735	4.060112
C	-3.333183	5.150555	4.141138
C	-4.533631	4.708046	4.990673
C	-3.364669	4.470098	2.764931
N	0.220576	6.473190	2.998403
C	1.564754	6.054805	3.389737
C	1.823376	4.547967	3.206914
C	3.310928	4.240111	3.427894
C	0.936564	3.699307	4.124819
C	-2.086160	5.866295	-2.689476
C	-1.141214	4.803302	-2.200720
C	-1.048578	3.452535	-2.473628
N	-0.123006	5.057863	-1.305398
C	0.514011	3.889574	-1.078124
N	-0.007856	2.882743	-1.765178
C	-2.892623	5.082234	-7.670158
C	-3.073195	3.796274	-6.882464
C	-2.125613	2.766274	-6.983941
C	-4.120239	3.642257	-5.965479
C	-2.196263	1.638275	-6.167884
C	-4.204182	2.507780	-5.153391
C	-3.234239	1.508303	-5.241333
O	0.972270	0.208721	-4.273351
O	-0.649290	-1.078694	1.700614
H	3.278228	-2.212807	-4.623630
H	2.469240	-1.448847	-6.013720
H	0.294922	-4.333902	-1.791042
H	-0.575098	-2.803617	-1.722022
H	-0.981507	-6.496897	-2.086499
H	-2.960167	-2.777565	-1.268773
H	-3.051794	-7.728039	-1.522546
H	-5.033140	-3.998546	-0.703004
H	-5.099778	-6.482373	-0.844623
H	-0.507173	-4.651617	-4.173597
H	-4.689498	-5.422624	-6.125061
H	-5.033273	-4.575256	-4.607685
H	-4.116306	-3.302356	-7.243528
H	-5.535060	-2.842438	-6.289358
H	-3.144393	-1.497334	-5.958206
H	-4.165441	-1.841683	-4.558861
H	-2.774125	-5.232301	-4.189914
H	3.498730	0.613087	-4.801843
H	2.800971	1.912095	-3.865669
H	4.017277	1.148101	-1.822592
H	5.494406	-4.797758	-2.447204
H	4.304370	-3.926023	-3.381728
H	3.344721	-3.006268	0.162254
H	3.788413	-6.819589	-3.315720
H	2.446279	-8.871868	-2.954732
H	0.719258	-7.207210	0.643893
H	0.934688	-9.072413	-1.002508
H	5.664832	-2.761995	-0.901943
H	5.171826	7.180477	-2.950230
H	7.417816	2.888683	-1.303651
H	8.967894	1.509570	0.112274
H	9.455391	3.211874	0.087498
H	8.620532	2.547893	1.502360
H	6.447969	0.899238	-0.231168
H	5.244194	2.189491	-0.183383
H	6.154669	1.792791	1.274020
H	6.657213	4.347329	1.261723
H	-4.258488	-3.626515	4.412215
H	-4.604577	-0.334641	7.162792
H	-2.731106	-2.312753	3.002305
H	-3.054652	0.994147	5.738782
H	-1.539206	-0.278237	2.799103
H	-0.629714	-3.799936	9.328285
H	0.160621	-5.610101	6.977891
H	1.279441	-4.777616	8.064468
H	0.246805	-6.068240	8.690155
H	-0.947048	-3.381034	6.314865
H	-1.696196	-2.381502	7.540536
H	0.607359	-1.746509	8.415867
H	1.335607	-2.672940	7.093984
H	0.333275	-1.266369	6.734618
H	-2.440461	-5.287638	7.350188
H	-8.769599	-1.686885	-3.259836
H	-6.665914	-1.959586	-1.957673
H	-6.482335	-0.646534	-3.123115
H	-6.758996	-0.279981	-1.413671
H	-9.129737	-0.617867	-0.420296
H	-10.421474	-1.219564	-1.448444
H	-9.299918	-3.501970	-1.496765
H	-8.076445	-2.898445	-0.370405
H	-9.762088	-2.992281	0.133605
H	-8.788162	1.207535	-2.244228
H	-6.884666	-0.719528	4.790730
H	-8.575560	-0.199235	4.968449
H	-9.622773	1.112772	3.226199
H	-5.351094	0.671148	3.232186
H	-9.504659	2.274714	1.043433
H	-5.224282	1.833970	1.057827
H	-7.298434	2.651452	-0.050613
H	-1.127838	-7.687181	3.075562
H	1.846130	-4.890397	4.427093
H	-2.133653	-5.926459	1.650398
H	0.816689	-3.119630	3.041565
H	-0.869904	-2.100690	1.593274
H	0.639387	10.280856	-0.127972
H	0.399283	9.504205	1.441603
H	-1.442549	9.152887	-0.999087
H	-3.228900	7.084438	5.081374
H	-4.208057	7.063770	3.610713
H	-2.422212	4.825512	4.659600
H	-4.559515	3.618548	5.101893
H	-4.497432	5.150124	5.993292
H	-5.479964	5.012766	4.524480
H	-3.381509	3.380214	2.872836
H	-2.485805	4.719674	2.163420
H	-4.257909	4.764722	2.198084
H	-2.125796	8.363485	3.320631
H	1.576711	4.301271	2.164499
H	3.521405	3.179808	3.255934
H	3.612618	4.477381	4.456552
H	3.945989	4.827511	2.753372
H	1.125726	2.631918	3.974894
H	1.128728	3.934845	5.178702
H	-0.123393	3.884343	3.932382
H	1.707128	6.333561	4.439321
H	-2.812059	5.425672	-3.378730
H	-2.638016	6.330823	-1.863754
H	-1.664233	2.868353	-3.143402
H	1.348198	3.804627	-0.396580
H	-2.749293	4.856981	-8.735372
H	-3.798345	5.694603	-7.594471
H	-4.867005	4.428072	-5.872184
H	-1.303569	2.865220	-7.689549
H	-5.016243	2.417047	-4.436947
H	-1.431823	0.869321	-6.224663
H	-3.257572	0.644198	-4.585382
H	10.476295	-2.392579	-0.957199
H	10.709311	-0.717113	-0.439924
H	8.713588	-2.676963	0.848196
H	9.039955	-1.051567	1.417550
H	11.067703	-3.336454	1.367763
H	12.457897	-1.871709	2.846699
H	12.204113	-1.115817	1.269086
H	11.275929	-0.566277	2.670545
H	10.734056	-3.437071	3.842849
H	9.216131	-3.764351	2.988972
H	9.488920	-2.184666	3.734240
H	0.904630	1.468931	-0.800607
H	7.791301	4.991899	0.061418
H	4.304732	5.644966	-2.714457
H	4.153673	6.925218	-1.511519
H	-1.848038	10.024860	0.486165
H	-10.064586	0.449792	-3.209317
H	3.311088	-2.987054	-6.231607
H	6.348428	-2.627919	-2.515919
H	5.077974	1.686449	-3.130126
H	0.887063	-7.197043	4.471502
H	-2.226703	-5.703374	9.059203
H	-7.251303	0.825974	5.537895
H	2.278587	6.620089	2.779105
H	-5.217107	-2.666089	6.507926
H	0.136672	5.940419	-0.790581
H	0.225967	-0.417905	-4.073230
H	-2.988858	-4.167272	8.600876
H	0.104223	6.660817	1.992750
H	1.360422	-2.566052	-3.314783
H	4.896920	4.712005	-0.344564
H	3.660249	-1.450909	-2.059734
H	9.151201	-1.228493	-1.091827
H	1.704509	-4.619844	1.160777
C	0.015758	-0.567901	0.568935
C	0.993772	0.565457	0.958492
H	0.407676	1.329340	1.495390
H	0.590932	-1.357728	0.065551
C	4.055715	-0.962217	3.618160
C	2.789670	-0.637678	4.109268
C	4.332985	-0.775377	2.262927
C	1.809661	-0.130463	3.253887
H	2.560004	-0.778456	5.162034
C	3.351467	-0.269309	1.406485
H	5.317217	-1.017237	1.869299
C	2.078912	0.059272	1.890669
H	0.822056	0.103050	3.638074
H	3.563688	-0.117449	0.354795
H	-0.693347	-0.153654	-0.168931
H	4.819123	-1.354470	4.285261
H	-1.557575	6.669420	-3.218355
H	-1.602677	8.264670	0.516271
H	-2.131488	6.989852	2.222744
H	-8.456303	0.706337	-3.907691
H	-2.295568	-5.029868	-5.892527
C	-1.677997	5.872494	-7.146497
H	-0.760130	5.284399	-7.234329
H	-1.537634	6.804764	-7.705817
H	-1.805003	6.123872	-6.089592