279			
			
C	2.615092	0.005955	-6.059873
C	1.696925	-1.210552	-5.945640
O	1.480067	-1.943459	-6.912864
N	1.124744	-1.428770	-4.717573
C	0.173219	-2.518527	-4.532243
C	-1.271692	-1.980966	-4.476034
O	-1.559457	-1.015135	-3.760433
C	0.494108	-3.320712	-3.245435
C	-0.332449	-4.578031	-3.080726
C	0.100856	-5.793420	-3.631395
C	-1.555854	-4.556232	-2.395961
C	-0.669275	-6.951827	-3.515354
C	-2.330562	-5.711523	-2.280647
C	-1.892277	-6.913101	-2.842257
N	-2.232174	-2.607101	-5.206386
C	-2.111077	-3.813530	-6.044267
C	-3.567193	-4.266864	-6.217746
C	-4.350756	-2.945144	-6.207128
C	-3.615075	-2.105989	-5.153707
C	3.600078	2.899311	-2.633192
C	4.802921	1.939242	-2.685313
O	5.950950	2.390002	-2.611312
C	2.166209	2.341668	-2.738911
C	1.806504	1.238609	-1.719443
O	1.521754	1.599655	-0.540275
O	1.861375	0.032190	-2.131164
N	4.555727	0.604563	-2.821897
C	5.650101	-0.358848	-2.782541
C	5.220971	-1.771366	-3.256317
C	5.024896	-2.780557	-2.158760
C	3.846365	-3.107805	-1.533213
C	6.043377	-3.592870	-1.538921
C	5.400227	-4.390980	-0.546945
C	7.430704	-3.733374	-1.721619
N	4.061423	-4.078033	-0.574644
C	6.103024	-5.303422	0.247787
C	8.132560	-4.637838	-0.932098
C	7.473984	-5.414388	0.044459
C	9.860357	1.713683	-1.152578
C	9.546811	0.512088	-0.253829
C	10.773726	-0.211922	0.333592
C	11.615566	0.698870	1.239695
C	10.344099	-1.478686	1.088307
C	2.572357	8.027069	-0.615410
C	3.986062	7.692934	-0.170205
O	4.959670	8.353156	-0.530873
N	4.099047	6.589184	0.631322
C	5.386897	6.097658	1.097859
C	5.847036	4.776311	0.450468
C	7.323899	4.520388	0.781914
C	4.985239	3.580966	0.876758
C	-3.238238	-4.556508	5.258403
C	-2.804651	-4.585352	3.929161
C	-3.220714	-3.335423	5.942621
C	-2.366696	-3.427060	3.285872
C	-2.786857	-2.170562	5.314535
C	-2.350965	-2.202395	3.976720
O	-1.950673	-1.039573	3.422711
C	0.032921	-7.050726	6.829307
C	0.924508	-5.884934	7.282237
C	0.999020	-4.806143	6.183270
C	2.309888	-6.401250	7.699719
C	1.739811	-3.524820	6.580254
C	-9.085392	-1.402450	-2.531226
C	-8.230689	-2.678465	-2.550071
C	-8.905837	-3.790520	-1.722195
C	-6.802334	-2.377014	-2.073095
C	-8.244711	-5.168696	-1.833368
C	-6.843271	-3.110717	4.814570
C	-7.617502	-2.382617	3.741700
C	-8.854712	-2.859344	3.289582
C	-7.112643	-1.205624	3.168591
C	-9.571912	-2.182862	2.300217
C	-7.822555	-0.527429	2.178263
C	-9.058667	-1.011247	1.741999
C	2.517426	-6.633011	2.026675
C	2.559863	-5.310579	2.478007
C	1.551688	-6.995198	1.081757
C	1.651094	-4.359034	2.005661
C	0.638359	-6.062012	0.602379
C	0.671242	-4.732719	1.066326
O	-0.243377	-3.876701	0.579486
C	-3.785388	8.239718	2.485423
C	-2.480917	8.461508	1.714442
C	-1.525887	7.242756	1.673154
O	-2.077793	6.090153	1.842242
O	-0.320456	7.458059	1.458356
C	-3.723206	5.438778	5.096371
C	-2.246771	5.357328	5.530731
O	-1.952605	5.189643	6.719442
C	-4.418184	4.077388	5.294554
C	-3.902353	2.951278	4.375747
C	-4.455090	1.586601	4.812219
C	-4.213638	3.213525	2.893822
N	-1.328865	5.438133	4.534889
C	0.110999	5.357312	4.782329
C	0.891857	4.871125	3.553269
C	2.395648	4.938304	3.853875
C	0.475728	3.456279	3.132044
C	-3.951458	5.575183	-1.028910
C	-2.758055	4.727661	-1.309888
C	-2.420310	3.986154	-2.414415
N	-1.728147	4.535820	-0.413075
C	-0.830465	3.703241	-1.001242
N	-1.216165	3.345025	-2.219383
C	-5.018217	5.809745	-6.016830
C	-4.881810	4.371665	-5.560272
C	-3.723951	3.635291	-5.850428
C	-5.880185	3.760604	-4.791129
C	-3.539289	2.346422	-5.349055
C	-5.715502	2.461844	-4.303947
C	-4.539157	1.760536	-4.567459
O	-0.472914	1.615664	-4.481469
O	-0.410391	-1.404051	1.259924
H	3.300436	0.098312	-5.213445
H	1.990529	0.906375	-6.074182
H	1.555203	-3.581061	-3.293639
H	0.351303	-2.660403	-2.385893
H	1.055419	-5.829310	-4.151278
H	-1.890019	-3.631648	-1.936553
H	-0.311291	-7.883992	-3.944778
H	-3.271080	-5.674652	-1.737828
H	-2.493251	-7.813508	-2.745990
H	0.301612	-3.160853	-5.405290
H	-3.712487	-4.855100	-7.128694
H	-3.859049	-4.886613	-5.362553
H	-4.283100	-2.460095	-7.187850
H	-5.410883	-3.071443	-5.969917
H	-3.637551	-1.033913	-5.360817
H	-4.026543	-2.253309	-4.146852
H	-1.499575	-4.574746	-5.558198
H	1.970653	1.946963	-3.736867
H	1.474813	3.174964	-2.593217
H	3.715932	3.450888	-1.694978
H	5.985156	-2.150651	-3.945827
H	4.303228	-1.688140	-3.847787
H	2.861655	-2.695265	-1.691232
H	7.949072	-3.139921	-2.470461
H	9.204714	-4.751978	-1.068771
H	5.588452	-5.900902	0.994604
H	8.048332	-6.111724	0.648570
H	6.076045	-0.418747	-1.771080
H	2.516752	9.101215	-0.800549
H	5.761293	4.891694	-0.637573
H	7.676452	3.612842	0.282391
H	7.957800	5.352719	0.454910
H	7.471387	4.390602	1.862398
H	5.312656	2.669640	0.367863
H	3.926090	3.718360	0.634981
H	5.060499	3.407438	1.958019
H	5.355503	5.978696	2.190683
H	-2.800237	-5.522647	3.378418
H	-3.549088	-3.288585	6.978445
H	-2.027120	-3.471037	2.256565
H	-2.766756	-1.221036	5.839758
H	-1.516157	-1.166197	2.537850
H	0.456294	-5.426676	8.167695
H	2.832703	-6.843558	6.842271
H	2.943702	-5.603528	8.099155
H	2.227325	-7.175302	8.472193
H	1.469862	-5.240321	5.290458
H	-0.022765	-4.543366	5.883557
H	1.281799	-3.058002	7.460644
H	2.794069	-3.710336	6.813635
H	1.709632	-2.793265	5.766962
H	0.461466	-7.547745	5.950372
H	-8.173302	-3.028973	-3.593057
H	-6.152697	-3.255660	-2.133228
H	-6.344074	-1.589239	-2.680601
H	-6.800491	-2.032890	-1.032196
H	-8.930333	-3.480657	-0.668293
H	-9.954495	-3.874224	-2.040992
H	-8.195279	-5.502323	-2.877116
H	-7.224363	-5.164078	-1.438555
H	-8.807885	-5.921523	-1.271091
H	-9.213772	-1.039207	-1.504775
H	-5.983568	-3.655409	4.409136
H	-7.477598	-3.833187	5.338149
H	-9.264310	-3.768922	3.723714
H	-6.160109	-0.808252	3.508103
H	-10.534849	-2.566989	1.972972
H	-7.412124	0.384721	1.754701
H	-9.620748	-0.472265	0.984393
H	1.510789	-8.016938	0.712243
H	3.309104	-5.005406	3.203695
H	-0.113527	-6.332641	-0.131447
H	1.686596	-3.333767	2.361136
H	-0.178442	-2.946910	0.974740
H	-2.706998	8.716798	0.668562
H	-1.918471	9.312520	2.114221
H	-4.308098	7.361575	2.100600
H	-4.274320	3.783170	6.341511
H	-5.501265	4.197072	5.141840
H	-2.810377	2.908717	4.484991
H	-3.999092	0.780765	4.227107
H	-4.245340	1.392251	5.870806
H	-5.544302	1.537079	4.676412
H	-3.856819	2.386447	2.270374
H	-3.740312	4.127663	2.524099
H	-5.298014	3.302213	2.737511
H	-4.201143	6.185911	5.739880
H	0.669696	5.560333	2.726939
H	2.983456	4.589123	2.998731
H	2.658881	4.300192	4.707954
H	2.713239	5.960709	4.089496
H	1.039743	3.128122	2.252026
H	0.663909	2.736261	3.939358
H	-0.588913	3.416830	2.886170
H	0.264225	4.686980	5.636553
H	-4.661495	5.494040	-1.857392
H	-4.462697	5.267801	-0.109510
H	-2.980418	3.874621	-3.328253
H	0.074294	3.358857	-0.519151
H	-4.876235	5.864631	-7.105538
H	-6.041594	6.155166	-5.824721
H	-6.786119	4.315551	-4.555655
H	-2.929966	4.093921	-6.435427
H	-6.493455	2.013453	-3.691009
H	-2.581438	1.848840	-5.480208
H	-4.372783	0.780632	-4.130593
H	10.560170	1.437165	-1.951466
H	10.305109	2.543595	-0.593720
H	8.961265	-0.215640	-0.830070
H	8.893525	0.833705	0.569582
H	11.408834	-0.522663	-0.511571
H	12.482752	0.162616	1.643022
H	11.987714	1.577712	0.704287
H	11.021032	1.055121	2.090318
H	11.211613	-2.036861	1.460461
H	9.757725	-2.148349	0.450184
H	9.720265	-1.223036	1.953758
H	-0.639330	2.224202	-3.725600
H	6.100960	6.891886	0.866170
H	2.369040	7.513920	-1.562589
H	1.792863	7.738667	0.097908
H	-4.451219	9.109142	2.405809
H	-10.083833	-1.583639	-2.946653
H	3.171773	-0.072338	-6.993794
H	6.446776	0.036773	-3.420509
H	3.767583	3.631611	-3.431013
H	3.225758	-7.365770	2.402024
H	-0.077053	-7.804093	7.618589
H	-6.440926	-2.412095	5.554797
H	0.493814	6.344099	5.085265
H	-3.578423	-5.463390	5.750435
H	-1.666500	5.009072	0.509183
H	-0.741768	0.751665	-4.128402
H	-0.965886	-6.696986	6.552243
H	-1.635584	5.630012	3.572687
H	1.273834	-0.772172	-3.945728
H	3.253546	6.121741	0.923850
H	3.600395	0.258646	-2.689886
H	8.945054	2.082064	-1.626993
H	3.365139	-4.410764	0.078783
C	-0.024809	-0.823665	0.017071
C	0.706983	0.057909	0.915817
H	0.125733	0.864110	1.346160
H	0.579972	-1.477272	-0.609555
C	4.363198	-0.901253	2.915342
C	3.262595	-0.428528	3.635086
C	4.277724	-1.046119	1.528711
C	2.082314	-0.103322	2.968971
H	3.323990	-0.308365	4.713181
C	3.095958	-0.727295	0.861186
H	5.131335	-1.405249	0.961603
C	1.985454	-0.262893	1.577124
H	1.216871	0.244906	3.524651
H	3.025815	-0.798461	-0.217286
H	-0.825211	-0.359025	-0.565100
H	5.286389	-1.149017	3.432628
H	-3.689620	6.633040	-0.903290
H	-3.590124	8.067945	3.548377
H	-3.807565	5.776489	4.061059
H	-8.619125	-0.600280	-3.113188
H	-1.648819	-3.563681	-7.009054
C	-4.020970	6.770663	-5.341412
H	-2.987463	6.471696	-5.538504
H	-4.154614	7.794196	-5.709739
H	-4.154772	6.776273	-4.255700