279			
			
C	3.054452	-0.831617	-5.710821
C	2.015214	-1.944944	-5.531616
O	1.703339	-2.671822	-6.479101
N	1.481846	-2.078089	-4.284009
C	0.552591	-3.162394	-3.985262
C	-0.908032	-2.684507	-4.075134
O	-1.266346	-1.613789	-3.561695
C	0.856336	-3.800979	-2.600985
C	0.264281	-5.187099	-2.442538
C	0.786309	-6.266754	-3.173905
C	-0.813480	-5.422989	-1.579542
C	0.224165	-7.539730	-3.078236
C	-1.381216	-6.696996	-1.488629
C	-0.874708	-7.755840	-2.242972
N	-1.810019	-3.480745	-4.710302
C	-1.580702	-4.751475	-5.436172
C	-2.990082	-5.341696	-5.552751
C	-3.882278	-4.099408	-5.694573
C	-3.223735	-3.072800	-4.760545
C	3.711593	2.593794	-2.724418
C	4.945678	1.683197	-2.564393
O	6.066599	2.200971	-2.493575
C	2.299653	2.005662	-3.012693
C	1.658241	0.894882	-2.116893
O	1.348235	1.436061	-0.858101
O	2.127435	-0.296453	-2.162275
N	4.738748	0.342315	-2.485541
C	5.832260	-0.579734	-2.202885
C	5.576885	-2.025325	-2.688802
C	5.036439	-2.981682	-1.656481
C	3.961103	-2.800789	-0.814292
C	5.580856	-4.277489	-1.335196
C	4.781551	-4.820720	-0.285778
C	6.661684	-5.037956	-1.818138
N	3.804219	-3.899378	0.003053
C	5.036217	-6.075992	0.278762
C	6.919264	-6.284498	-1.260321
C	6.113616	-6.798189	-0.221653
C	9.860456	1.857340	-0.617731
C	9.657341	0.928304	0.583696
C	10.937881	0.567671	1.362145
C	11.603526	1.797323	1.998590
C	10.641418	-0.496418	2.428803
C	2.427016	7.938877	-1.628291
C	3.809530	7.713530	-1.039419
O	4.795697	8.336282	-1.429843
N	3.881073	6.750587	-0.069646
C	5.138172	6.393830	0.572167
C	5.740337	5.048309	0.126923
C	7.202761	4.954232	0.583244
C	4.933712	3.854588	0.647108
C	-3.567825	-3.747557	5.726996
C	-2.944057	-4.062757	4.512869
C	-3.634891	-2.401579	6.106148
C	-2.406986	-3.075155	3.682443
C	-3.108007	-1.400848	5.289927
C	-2.490490	-1.724304	4.066418
O	-2.022768	-0.694298	3.323348
C	-0.379076	-5.857759	7.910636
C	0.772444	-4.844225	7.827716
C	0.425016	-3.707622	6.845634
C	2.086239	-5.551487	7.460231
C	1.421562	-2.544150	6.831489
C	-8.854154	-2.044789	-2.873638
C	-8.280112	-3.385120	-2.390676
C	-9.154318	-3.972179	-1.264112
C	-6.813247	-3.220409	-1.965875
C	-8.779856	-5.394123	-0.832405
C	-7.155851	-2.506135	4.795058
C	-7.399126	-1.755453	3.506421
C	-8.687795	-1.629088	2.971936
C	-6.334401	-1.146053	2.825858
C	-8.913856	-0.907213	1.797678
C	-6.554764	-0.424001	1.652901
C	-7.846529	-0.299400	1.134515
C	2.462303	-6.119073	3.298607
C	2.579534	-4.723599	3.298290
C	1.402573	-6.688822	2.574710
C	1.682487	-3.915060	2.594891
C	0.498386	-5.901741	1.874510
C	0.597980	-4.474758	1.846837
O	-0.257672	-3.751737	1.183145
C	-4.155513	8.430687	0.923123
C	-2.721053	8.695031	0.461969
C	-1.801865	7.455657	0.456139
O	-2.378819	6.338761	0.763520
O	-0.608962	7.601822	0.153756
C	-4.240044	6.077620	3.943407
C	-2.802076	6.111245	4.497899
O	-2.598261	6.185966	5.713425
C	-5.069136	4.977517	4.628761
C	-4.539577	3.540079	4.451028
C	-5.377218	2.560728	5.286542
C	-4.488229	3.089453	2.983697
N	-1.810543	6.029569	3.573650
C	-0.392170	6.071360	3.929230
C	0.494507	5.351001	2.904134
C	1.970094	5.563131	3.271527
C	0.160900	3.857533	2.810679
C	-3.994181	5.243753	-2.125694
C	-2.847258	4.304543	-1.955285
C	-2.452917	3.215561	-2.691429
N	-1.920974	4.433843	-0.941300
C	-1.014481	3.454973	-1.083763
N	-1.307326	2.692198	-2.134293
C	-4.674502	4.658252	-7.152291
C	-4.436358	3.307346	-6.504664
C	-3.243020	2.607367	-6.739296
C	-5.358628	2.758446	-5.604556
C	-2.961845	1.418536	-6.067060
C	-5.086561	1.562663	-4.934735
C	-3.879363	0.896786	-5.151136
O	0.164343	0.859688	-2.926285
O	-0.336405	-1.220303	1.200668
H	3.382343	-0.383339	-4.773021
H	2.627948	-0.053393	-6.352116
H	1.946506	-3.850340	-2.512891
H	0.498422	-3.149263	-1.800615
H	1.647066	-6.106062	-3.819455
H	-1.158344	-4.627463	-0.925112
H	0.648047	-8.362276	-3.648893
H	-2.213440	-6.861836	-0.809273
H	-1.316033	-8.746267	-2.164542
H	0.730588	-3.905098	-4.765461
H	-3.078082	-6.039474	-6.390860
H	-3.234053	-5.884035	-4.632692
H	-3.856599	-3.736169	-6.728722
H	-4.928070	-4.284405	-5.433171
H	-3.312775	-2.048655	-5.129585
H	-3.650598	-3.094806	-3.750232
H	-0.906509	-5.406036	-4.886065
H	2.279864	1.581792	-4.019796
H	1.606005	2.851487	-3.026222
H	3.677529	3.190910	-1.807602
H	6.534543	-2.425822	-3.041135
H	4.931591	-1.988751	-3.576285
H	3.284702	-1.961039	-0.743653
H	7.289239	-4.657066	-2.620628
H	7.753366	-6.876555	-1.629653
H	4.408921	-6.459807	1.078376
H	6.338666	-7.777134	0.194166
H	6.055996	-0.596619	-1.127049
H	2.365724	8.973971	-1.969000
H	5.726313	5.023625	-0.970113
H	7.649283	4.012085	0.251158
H	7.802644	5.775281	0.174237
H	7.279977	4.994986	1.677934
H	5.324551	2.918502	0.240698
H	3.876839	3.915310	0.365420
H	4.978259	3.791582	1.741705
H	4.994772	6.388909	1.661888
H	-2.860061	-5.100611	4.200286
H	-4.102891	-2.122884	7.047766
H	-1.908158	-3.348165	2.753685
H	-3.151892	-0.356364	5.583601
H	-1.521197	-0.968419	2.515683
H	0.896323	-4.396544	8.827615
H	2.035208	-5.958056	6.443216
H	2.940788	-4.868602	7.498432
H	2.295207	-6.379989	8.148377
H	0.340819	-4.120345	5.832354
H	-0.570308	-3.319309	7.095555
H	1.542597	-2.107406	7.831408
H	2.410118	-2.855764	6.479574
H	1.074779	-1.752368	6.160651
H	-0.540887	-6.339277	6.939024
H	-8.313199	-4.089024	-3.237764
H	-6.354876	-4.174219	-1.688501
H	-6.214645	-2.794386	-2.778812
H	-6.729008	-2.548624	-1.103914
H	-9.107123	-3.302215	-0.394714
H	-10.201521	-3.967794	-1.598572
H	-8.803811	-6.086912	-1.682630
H	-7.777240	-5.437612	-0.396991
H	-9.478426	-5.771506	-0.077752
H	-8.845671	-1.305951	-2.063301
H	-6.241769	-3.103748	4.746307
H	-7.994527	-3.168362	5.034268
H	-9.524724	-2.100098	3.483551
H	-5.325669	-1.238954	3.218737
H	-9.923478	-0.817740	1.404193
H	-5.715123	0.043296	1.146909
H	-8.018046	0.270428	0.225337
H	1.284699	-7.771835	2.558231
H	3.387711	-4.249641	3.852986
H	-0.312756	-6.358837	1.315710
H	1.775244	-2.832282	2.630948
H	-0.228140	-2.246623	1.204002
H	-2.709286	9.101697	-0.558392
H	-2.240299	9.460333	1.083743
H	-4.615144	7.636137	0.330602
H	-5.097142	5.205275	5.700705
H	-6.104597	5.029051	4.260596
H	-3.514791	3.520053	4.845722
H	-4.994846	1.537872	5.200922
H	-5.373287	2.836968	6.347395
H	-6.421386	2.549153	4.947597
H	-4.074399	2.078138	2.905613
H	-3.863226	3.747424	2.372824
H	-5.493830	3.075091	2.542512
H	-4.692732	7.051906	4.165886
H	0.313288	5.818415	1.925908
H	2.629381	5.054379	2.560134
H	2.191163	5.152760	4.265036
H	2.234250	6.626942	3.280508
H	0.802599	3.355967	2.078849
H	0.318640	3.357420	3.774019
H	-0.881863	3.698160	2.522313
H	-0.288768	5.619920	4.922338
H	-4.665614	4.873228	-2.905112
H	-4.562869	5.351022	-1.196419
H	-2.909708	2.782511	-3.566233
H	-0.155664	3.310486	-0.448808
H	-4.504334	4.587696	-8.234922
H	-5.722264	4.951712	-7.018712
H	-6.293069	3.281970	-5.414068
H	-2.514609	3.012357	-7.438301
H	-5.806678	1.165735	-4.224599
H	-2.017327	0.908479	-6.230930
H	-3.625492	0.005348	-4.586893
H	10.594574	1.441338	-1.319224
H	10.214216	2.849032	-0.316861
H	9.190812	-0.001920	0.234670
H	8.936071	1.382463	1.277957
H	11.651118	0.134192	0.643275
H	12.509059	1.515741	2.548861
H	11.888809	2.542696	1.250024
H	10.921817	2.282989	2.707937
H	11.551061	-0.791208	2.965258
H	10.205566	-1.397424	1.984406
H	9.927741	-0.116901	3.170330
H	-0.583082	1.683803	-2.537765
H	5.828261	7.205554	0.327673
H	2.305132	7.292367	-2.505289
H	1.602635	7.733195	-0.937824
H	-4.772951	9.334056	0.830745
H	-9.889723	-2.151075	-3.217690
H	3.913768	-1.255032	-6.236973
H	6.717346	-0.165676	-2.695274
H	3.958306	3.294949	-3.527842
H	3.168273	-6.739489	3.843607
H	-0.168271	-6.646642	8.643242
H	-7.031978	-1.812356	5.635662
H	-0.059770	7.116913	4.022110
H	-3.973903	-4.527967	6.363876
H	-1.961531	5.185571	-0.179341
H	-0.192966	-0.052336	-2.952320
H	-1.318214	-5.370834	8.195736
H	-2.049610	6.065055	2.577651
H	1.733441	-1.415397	-3.538258
H	3.024775	6.313003	0.236148
H	3.771222	-0.005073	-2.398901
H	8.920540	1.993728	-1.162845
H	3.108068	-3.988507	0.738899
C	0.211122	-0.704970	0.001648
C	0.926300	0.643241	0.295595
H	0.156613	1.273306	0.757147
H	0.921751	-1.414022	-0.425078
C	4.074192	0.179511	3.244698
C	2.731459	0.206723	3.626963
C	4.403257	0.316560	1.896838
C	1.729628	0.368358	2.670192
H	2.459771	0.103984	4.674185
C	3.399757	0.477707	0.938021
H	5.443791	0.299068	1.583914
C	2.051962	0.499677	1.309441
H	0.689289	0.371767	2.976249
H	3.665999	0.588097	-0.104809
H	-0.571782	-0.519701	-0.747571
H	4.854816	0.054372	3.990611
H	-3.657184	6.247226	-2.412039
H	-4.181697	8.112419	1.966840
H	-4.232773	5.961017	2.856335
H	-8.265175	-1.634342	-3.701249
H	-1.142481	-4.546056	-6.422233
C	-3.752342	5.744850	-6.566651
H	-2.699329	5.484344	-6.707678
H	-3.928809	6.713912	-7.046899
H	-3.919528	5.861001	-5.491729