116

C	6.525185	0.072077	4.956019
C	6.123899	-1.395107	4.971381
O	6.199813	-2.080022	5.990514
N	5.666407	-1.838614	3.772302
C	4.870481	-3.048773	3.642349
C	3.413501	-2.704104	3.344260
C	3.244437	-1.942352	2.023190
O	4.068390	-1.031017	1.719543
O	2.252311	-2.315603	1.333780
C	-5.193126	-2.344560	-1.216822
C	-4.305309	-1.316317	-0.556326
S	-2.752429	-1.210349	-1.513712
C	8.496162	-0.120585	-3.072188
C	7.326490	-0.591905	-2.259548
C	7.008225	-0.272389	-0.957093
C	6.290375	-1.480297	-2.715684
N	5.842104	-0.904878	-0.574003
C	5.379515	-1.647144	-1.635526
C	6.037641	-2.147198	-3.928423
C	4.232957	-2.443155	-1.731824
C	4.903009	-2.941380	-4.030763
C	4.013180	-3.082069	-2.943063
C	2.483752	5.842951	-1.909178
C	1.461163	5.805235	-0.772591
N	0.514922	4.710599	-0.981291
C	-0.811729	4.786745	-0.998066
N	-1.440246	5.888858	-0.490572
N	-1.543378	3.839462	-1.582105
C	-2.569819	1.572510	4.836841
C	-3.743301	1.221561	3.936396
O	-4.671092	2.308393	4.067616
C	-3.263999	1.009708	2.516168
S	-2.187904	-0.362499	2.230192
C	-3.675604	1.804537	1.500055
S	-3.078293	1.548574	-0.116532
C	-4.765932	2.831092	1.714870
C	-5.551802	2.459701	2.971426
C	1.542390	2.597894	-3.817451
C	2.203800	1.854266	-2.665867
O	3.282316	2.669563	-2.190103
C	1.211544	1.549953	-1.561597
S	-0.322486	0.857948	-2.096682
C	1.515706	1.776059	-0.259145
S	0.319118	1.520136	1.021284
C	2.907189	2.193635	0.172089
C	3.869934	2.109861	-1.014192
W	-1.222397	-0.112910	0.076588
O	1.041439	-1.201185	-0.477529
C	-0.749241	-2.226865	0.672974
C	-0.135978	-1.890664	-0.568267
C	-4.873899	-3.812506	-0.891590
O	-4.932550	-4.236364	0.260617
N	-4.652190	-4.604904	-1.978949
N	-6.589932	-2.146916	-0.830894
C	-7.465035	-1.485286	-1.639395
O	-7.215442	-1.170604	-2.799490
C	-4.465348	-6.042696	-1.893787
C	-8.785237	-1.125933	-0.989169
H	5.694371	0.671076	5.345871
H	3.015576	-2.079920	4.155194
H	2.803235	-3.609396	3.295889
H	4.965931	-3.604085	4.578930
H	5.427758	-1.160784	3.048480
H	8.173855	0.422407	-3.970447
H	9.120010	-0.957152	-3.414181
H	7.536956	0.369294	-0.264332
H	5.331518	-0.835290	0.309738
H	6.716784	-2.039980	-4.771250
H	4.689885	-3.461084	-4.961585
H	3.543575	-2.543981	-0.900516
H	3.130843	-3.705933	-3.058585
H	2.977960	4.874761	-2.021089
H	1.994195	6.089724	-2.856446
H	1.962214	5.666945	0.193261
H	0.900851	6.743595	-0.726801
H	0.905124	3.765769	-1.098906
H	-2.448992	5.883262	-0.530277
H	-1.044031	6.307771	0.337971
H	-2.415621	3.557852	-1.128221
H	-1.065674	2.989525	-1.936301
H	-4.091512	-1.597179	0.478497
H	-4.819608	-0.355659	-0.564214
H	-2.056041	2.456065	4.446954
H	-1.854959	0.747476	4.878194
H	-4.227966	0.297818	4.300956
H	-5.430422	2.859760	0.840980
H	-6.125526	1.534704	2.792798
H	1.045294	3.509804	-3.474133
H	0.801170	1.964652	-4.306359
H	2.621863	0.905001	-3.040941
H	3.252768	1.514762	0.961452
H	4.142536	1.064066	-1.202093
H	-0.127046	-2.307200	1.559270
H	-2.921145	1.788434	5.852017
H	-4.345142	3.840039	1.837147
H	-6.258293	3.248508	3.253279
H	2.302103	2.882741	-4.553405
H	3.239551	6.608806	-1.703629
H	4.789710	2.673736	-0.829317
H	2.901321	3.207616	0.603784
H	7.381087	0.221049	5.618412
H	6.768842	0.437405	3.954574
H	9.138832	0.552519	-2.494576
H	5.278793	-3.674258	2.837672
H	-5.177504	-2.179567	-2.297376
H	1.620548	-1.561543	0.317905
H	-1.614560	-2.881248	0.650331
H	-9.590072	-1.269824	-1.713297
H	-9.000773	-1.705622	-0.086465
H	-8.768017	-0.064109	-0.721020
H	-0.367780	-2.336910	-1.530329
H	-4.538277	-4.150473	-2.872403
H	-6.829620	-2.357093	0.127628
H	-4.645208	-6.331683	-0.857307
H	-5.172898	-6.566930	-2.546303
H	-3.445460	-6.335167	-2.169170