117

C	6.413274	0.513020	5.019053
C	6.021546	-0.941255	5.047726
O	6.327440	-1.688597	5.969877
N	5.303915	-1.339895	3.959897
C	4.796633	-2.681923	3.843331
C	3.278536	-2.725476	3.675070
C	2.815155	-2.091268	2.379303
O	3.557784	-1.481854	1.613382
O	1.520193	-2.277321	2.168111
C	-5.205558	-2.296004	-1.175694
C	-4.222386	-1.464774	-0.347625
S	-2.480773	-1.698150	-0.908608
C	8.492483	-0.070144	-2.962851
C	7.386552	-0.607491	-2.103842
C	7.189368	-0.415411	-0.756783
C	6.305885	-1.449180	-2.550509
N	6.051435	-1.086143	-0.337609
C	5.491422	-1.728501	-1.418498
C	5.949836	-1.994006	-3.797240
C	4.347780	-2.530226	-1.496834
C	4.815037	-2.789347	-3.883704
C	4.027576	-3.053471	-2.742577
C	2.426337	5.901104	-2.180939
C	1.870751	5.597308	-0.789293
N	0.767750	4.628819	-0.844813
C	-0.524699	4.928267	-0.992565
N	-0.993054	6.138893	-0.600252
N	-1.359850	4.072353	-1.580552
C	-2.688916	1.940152	4.705931
C	-3.853003	1.517630	3.815202
O	-4.809965	2.580340	3.866689
C	-3.369867	1.256508	2.405241
S	-1.976842	0.166099	2.209184
C	-3.869137	1.920459	1.347652
S	-3.064115	1.737974	-0.233130
C	-5.073183	2.819103	1.469103
C	-5.756340	2.544029	2.811893
C	1.531710	2.557265	-3.934898
C	2.258756	1.749810	-2.873514
O	3.353009	2.547034	-2.404766
C	1.355609	1.357040	-1.718468
S	-0.356086	1.015822	-2.072729
C	1.795601	1.395143	-0.435715
S	0.711793	1.079228	0.927827
C	3.229233	1.754462	-0.101678
C	4.073281	1.871022	-1.375022
W	-1.357663	0.204648	-0.035583
O	0.417013	-1.664733	-0.282750
C	0.293964	-5.113135	-1.018610
C	-0.631507	-4.814274	-0.301806
C	-5.078181	-3.792652	-0.859739
O	-5.474007	-4.221648	0.225360
N	-4.572599	-4.583807	-1.834742
N	-6.566467	-1.955795	-0.796417
C	-7.374354	-1.156014	-1.548503
O	-6.988993	-0.562659	-2.550253
C	-4.444728	-6.018249	-1.655416
C	-8.808273	-1.093278	-1.056642
H	5.977110	1.017093	5.886726
H	2.777911	-2.208111	4.502417
H	2.913553	-3.758592	3.695104
H	5.090585	-3.203121	4.756508
H	5.043156	-0.680934	3.242552
H	8.104352	0.554827	-3.776640
H	9.070949	-0.878020	-3.427617
H	7.783117	0.150997	-0.052165
H	5.652610	-1.102471	0.589771
H	6.554394	-1.797133	-4.678506
H	4.527357	-3.218917	-4.838926
H	3.748451	-2.729083	-0.615170
H	3.150135	-3.687588	-2.844534
H	2.840245	4.993248	-2.625194
H	1.645681	6.301847	-2.834880
H	2.641609	5.164705	-0.146981
H	1.527710	6.510132	-0.295629
H	1.029863	3.654809	-1.009500
H	-1.967680	6.346423	-0.753526
H	-0.538587	6.624621	0.156763
H	-2.318235	4.006476	-1.250448
H	-0.996356	3.153249	-1.881578
H	-4.292241	-1.740640	0.707842
H	-4.483550	-0.415575	-0.464009
H	-2.178688	2.803274	4.268740
H	-1.967573	1.128906	4.816076
H	-4.316739	0.601918	4.225100
H	-5.773937	2.640315	0.642670
H	-6.264510	1.566016	2.779146
H	1.040197	3.436603	-3.510593
H	0.772862	1.951808	-4.433264
H	2.673457	0.841448	-3.345315
H	3.654219	0.988698	0.556922
H	4.367954	0.873506	-1.728888
H	0.103680	-2.523798	-0.622017
H	-3.066289	2.219589	5.694822
H	-4.778988	3.877583	1.414251
H	-6.504853	3.308154	3.043464
H	2.252458	2.898584	-4.684702
H	3.225591	6.646216	-2.108079
H	4.985197	2.449079	-1.200406
H	3.248332	2.696934	0.466646
H	7.499682	0.593305	5.117370
H	6.099024	1.039214	4.113308
H	9.189149	0.540697	-2.380575
H	5.269435	-3.198096	2.997453
H	-5.086029	-2.071602	-2.238835
H	1.003382	-1.282193	-0.955436
H	1.107229	-5.402200	-1.644855
H	-9.434595	-1.712944	-1.707060
H	-8.929438	-1.438182	-0.026299
H	-9.168484	-0.065558	-1.139026
H	-1.448977	-4.533902	0.325536
H	1.224625	-1.853970	1.324764
H	-4.201113	-4.148740	-2.666207
H	-6.930655	-2.476443	-0.009146
H	-5.004419	-6.287726	-0.759984
H	-4.856762	-6.550403	-2.518561
H	-3.398007	-6.316748	-1.523984