117

C	6.399865	-0.724719	4.933079
C	5.943767	-2.143367	4.692394
O	6.076930	-3.033493	5.524097
N	5.359380	-2.327916	3.473606
C	4.687788	-3.558077	3.131866
C	3.177912	-3.383034	3.015573
C	2.794919	-2.436399	1.898205
O	3.595520	-1.740699	1.277887
O	1.493734	-2.457577	1.667344
C	-5.294977	-1.845285	-1.642478
C	-4.303513	-1.175166	-0.695472
S	-2.574364	-1.483488	-1.209958
C	8.465403	0.292532	-3.008756
C	7.335613	-0.364383	-2.274606
C	7.130665	-0.426792	-0.916566
C	6.235715	-1.071663	-2.879168
N	5.970702	-1.131071	-0.638306
C	5.402178	-1.536133	-1.824708
C	5.876417	-1.357068	-4.208711
C	4.236252	-2.271853	-2.060650
C	4.719277	-2.085393	-4.450139
C	3.911916	-2.537473	-3.384275
C	2.582693	6.151405	-0.975831
C	1.954393	5.585272	0.298708
N	0.837755	4.676948	0.005980
C	-0.437586	5.031614	-0.154348
N	-0.900056	6.186835	0.382987
N	-1.262757	4.290137	-0.896528
C	-2.654648	1.006985	4.973052
C	-3.777594	0.707978	3.985538
O	-4.778210	1.708806	4.196512
C	-3.246936	0.722723	2.568518
S	-1.776575	-0.225235	2.239637
C	-3.742062	1.553450	1.632620
S	-2.886335	1.707037	0.082063
C	-4.989483	2.364811	1.873972
C	-5.695496	1.830111	3.122946
C	1.588141	3.270395	-3.377645
C	2.347317	2.261148	-2.533311
O	3.470227	2.941964	-1.962670
C	1.480216	1.656827	-1.446637
S	-0.230814	1.337902	-1.821151
C	1.947176	1.468746	-0.189216
S	0.881746	0.922821	1.114330
C	3.393277	1.745441	0.163766
C	4.204712	2.081464	-1.092295
W	-1.151747	0.132249	0.028669
O	0.128267	-1.601428	-0.480114
C	-0.935416	-3.889246	0.047255
C	-2.166441	-3.658085	-0.018487
C	-5.139251	-3.368402	-1.616276
O	-5.320316	-3.981276	-0.558181
N	-4.834838	-3.972081	-2.785413
N	-6.655443	-1.578876	-1.210433
C	-7.457529	-0.660967	-1.823649
O	-7.084658	0.032320	-2.763315
C	-4.647097	-5.409031	-2.885106
C	-8.859607	-0.586287	-1.257146
H	5.705217	-0.238057	5.626206
H	2.756949	-2.991352	3.949684
H	2.681620	-4.342962	2.834891
H	4.926553	-4.271860	3.922843
H	5.174286	-1.534872	2.878158
H	8.104027	1.063896	-3.700189
H	9.034214	-0.430761	-3.606203
H	7.733635	-0.022828	-0.114509
H	5.554026	-1.302624	0.265486
H	6.496005	-1.014674	-5.033308
H	4.428981	-2.316577	-5.471003
H	3.620979	-2.618755	-1.237536
H	3.018989	-3.116021	-3.607300
H	2.999806	5.341920	-1.579132
H	1.842735	6.699931	-1.566849
H	2.685313	5.008156	0.869944
H	1.609381	6.386738	0.957824
H	1.086806	3.728837	-0.286016
H	-1.859975	6.444216	0.215012
H	-0.462541	6.564713	1.208035
H	-2.233558	4.201344	-0.614348
H	-0.901029	3.414493	-1.308130
H	-4.444964	-1.550761	0.322244
H	-4.479126	-0.101295	-0.703300
H	-2.161009	1.945499	4.705237
H	-1.909206	0.210356	4.971156
H	-4.214620	-0.281738	4.212570
H	-5.659380	2.309541	1.005295
H	-6.163617	0.856337	2.900896
H	1.143661	4.057152	-2.763040
H	0.790613	2.785112	-3.942715
H	2.726518	1.459860	-3.191735
H	3.817274	0.860028	0.650948
H	4.471903	1.160669	-1.628182
H	-0.285251	-2.678717	-0.316984
H	-3.070423	1.103885	5.981181
H	-4.741374	3.426981	2.015153
H	-6.479790	2.513394	3.463467
H	2.277668	3.742545	-4.084735
H	3.390915	6.842758	-0.715006
H	5.130293	2.607884	-0.842732
H	3.449988	2.561872	0.899572
H	7.380247	-0.739013	5.414826
H	6.456286	-0.123904	4.021000
H	9.165949	0.771407	-2.317569
H	5.085209	-3.953158	2.188802
H	-5.188077	-1.431512	-2.648381
H	0.489630	-1.533027	-1.375944
H	-0.323935	-4.693002	0.431494
H	-9.568158	-0.924072	-2.019717
H	-9.002565	-1.185652	-0.354259
H	-9.098137	0.457167	-1.035824
H	-3.232190	-3.763330	0.078596
H	1.233843	-1.841331	0.938408
H	-4.628400	-3.390670	-3.584315
H	-6.999571	-2.143752	-0.446673
H	-5.016058	-5.854537	-1.961508
H	-5.209679	-5.809671	-3.733809
H	-3.589127	-5.666465	-3.006028