116

C	6.49746		0.880078	4.914441
C	6.133915	-0.576855	5.080681
O	6.424791	-1.214371	6.090319
N	5.450695	-1.087394	4.025963
C	4.859483	-2.403419	4.054698
C	3.364785	-2.363745	3.76684
C	3.097559	-1.924624	2.341323
O	3.820897	-1.101139	1.758207
O	2.067467	-2.515308	1.817136
C	-5.187227	-2.443262	-0.889558
C	-3.970259	-1.751669	-0.283843
S	-2.775993	-1.327488	-1.612177
C	8.501068	-0.449705	-2.997019
C	7.390212	-0.885067	-2.091475
C	7.163052	-0.509341	-0.787525
C	6.32731		-1.791758	-2.440329
N	6.031144	-1.135281	-0.298141
C	5.494145	-1.918416	-1.295779
C	5.988601	-2.496816	-3.609686
C	4.343766	-2.711985	-1.288967
C	4.842843	-3.28206	-3.610354
C	4.028525	-3.381169	-2.461225
C	2.462191	5.593477	-2.718878
C	1.675676	5.607489	-1.40588
N	0.72101		4.500802	-1.364688
C	-0.609217	4.595334	-1.281946
N	-1.172229	5.733344	-0.77015
N	-1.391031	3.640611	-1.759321
C	-2.602453	2.309791	4.550979
C	-3.801185	1.867482	3.727266
O	-4.709735	2.974874	3.709181
C	-3.355847	1.453079	2.339516
S	-2.147677	0.177835	2.264687
C	-3.852625	2.037071	1.223609
S	-3.239878	1.590323	-0.347734
C	-5.00978	3.00898		1.310034
C	-5.677843	2.884786	2.678053
C	1.540368	2.10507		-4.146927
C	2.24275		1.435222	-2.978605
O	3.341008	2.28167		-2.608374
C	1.300422	1.213658	-1.808294
S	-0.332371	0.650556	-2.209019
C	1.683346	1.487383	-0.53342
S	0.569529	1.344398	0.825501
C	3.100287	1.925043	-0.21168
C	3.999706	1.790582	-1.441996
W	-1.341928	-0.08855	0.033737
O	1.359941	-1.810838	-0.415575
C	-0.771236	-1.719687	0.900135
C	-0.11613	-1.837112	-0.334558
C	-5.276001	-3.938751	-0.521731
O	-6.061715	-4.348881	0.333842
N	-4.451649	-4.758343	-1.227805
N	-6.451687	-1.833756	-0.489856
C	-7.404008	-1.513721	-1.423048
O	-7.193815	-1.459255	-2.629436
C	-4.443169	-6.197091	-1.028491
C	-8.784672	-1.219734	-0.85069
H	5.874547	1.481784	5.58492
H	2.865335	-1.659781	4.444292
H	2.908375	-3.344581	3.922557
H	5.055884	-2.813541	5.048339
H	5.164024	-0.506487	3.248864
H	8.117251	0.041026	-3.900703
H	9.111837	-1.298439	-3.331951
H	7.733562	0.163408	-0.160982
H	5.565348	-0.981296	0.587798
H	6.608029	-2.420539	-4.5001
H	4.561025	-3.824366	-4.509002
H	3.708761	-2.786064	-0.416814
H	3.130409	-3.99073	-2.494417
H	2.979406	4.638375	-2.844201
H	1.792388	5.742909	-3.571151
H	2.356255	5.527032	-0.550005
H	1.120521	6.543278	-1.300553
H	1.088956	3.553976	-1.489598
H	-2.180706	5.727603	-0.708223
H	-0.706146	6.147126	0.024963
H	-2.264608	3.398538	-1.271111
H	-0.959683	2.766271	-2.120468
H	-3.474092	-2.370704	0.470257
H	-4.308816	-0.835754	0.203133
H	-2.06898	3.110629	4.030308
H	-1.911374	1.479158	4.703772
H	-4.298709	1.016487	4.229283
H	-5.732209	2.798622	0.511002
H	-6.225241	1.929264	2.74224
H	1.063577	3.041715	-3.844947
H	0.773059	1.449607	-4.560547
H	2.651221	0.467069	-3.316951
H	3.490741	1.304459	0.603408
H	4.281405	0.739328	-1.595054
H	1.831545	-2.141117	0.854607
H	-2.93284	2.684206	5.526778
H	-4.666319	4.044449	1.163896
H	-6.392275	3.696953	2.85404
H	2.27165		2.332857	-4.930233
H	3.20471		6.399037	-2.718041
H	4.920429	2.373216	-1.335684
H	3.101466	2.962651	0.158485
H	7.536698	1.029407	5.218757
H	6.36424		1.250305	3.894294
H	9.170113	0.258773	-2.497308
H	5.35499		-3.060458	3.326424
H	-5.158914	-2.346053	-1.978244
H	1.629918	-0.936564	-0.741529
H	-0.774375	-2.239934	1.853503
H	-9.430094	-2.088963	-1.017542
H	-8.770069	-0.996609	0.219962
H	-9.21579	-0.37564	-1.392908
H	-0.471218	-2.467531	-1.147531
H	-3.773695	-4.329832	-1.845395
H	-6.787852	-2.149204	0.412355
H	-5.279915	-6.437614	-0.372056
H	-4.564725	-6.721391	-1.982912
H	-3.513462	-6.538702	-0.557105