117

C	6.491595	0.025043	4.931035
C	5.867757	-1.354835	5.001136
O	5.532774	-1.885729	6.052687
N	5.685814	-1.943235	3.777189
C	4.785421	-3.072503	3.628086
C	3.315386	-2.657511	3.666735
C	2.978372	-1.601270	2.635461
O	3.754317	-1.197086	1.772850
O	1.739861	-1.151600	2.785252
C	-5.229427	-2.208189	-1.305409
C	-4.269332	-1.306081	-0.549102
S	-2.553987	-1.574271	-1.143009
C	8.512795	-0.263747	-3.081787
C	7.361054	-0.748028	-2.253062
C	7.103630	-0.495314	-0.926701
C	6.287056	-1.588723	-2.717374
N	5.937350	-1.133968	-0.532675
C	5.414165	-1.804178	-1.616599
C	5.978057	-2.175863	-3.957162
C	4.252100	-2.573939	-1.723711
C	4.825633	-2.942566	-4.069394
C	3.972269	-3.136661	-2.962694
C	2.609808	5.823586	-2.002631
C	1.886097	5.662711	-0.665471
N	0.793700	4.685330	-0.762353
C	-0.504768	4.963063	-0.895967
N	-0.995103	6.154459	-0.470834
N	-1.325299	4.104317	-1.500217
C	-2.571479	1.700802	4.738357
C	-3.759809	1.386860	3.836368
O	-4.652521	2.498221	3.940267
C	-3.296449	1.160240	2.411798
S	-1.991450	-0.018037	2.180899
C	-3.771929	1.885967	1.378338
S	-3.028004	1.736437	-0.217594
C	-4.928898	2.839500	1.560334
C	-5.612017	2.549576	2.898776
C	1.618439	2.583728	-3.894339
C	2.323570	1.763199	-2.829798
O	3.447017	2.524562	-2.374873
C	1.409262	1.412200	-1.671569
S	-0.284348	1.069839	-2.041571
C	1.853426	1.452464	-0.392734
S	0.735415	1.160649	0.948588
C	3.289928	1.790140	-0.054407
C	4.139152	1.846201	-1.328403
W	-1.275287	0.116322	-0.036286
O	-2.042380	-4.661682	0.231781
C	0.060563	-1.582238	-0.140715
C	0.776399	-2.603997	-0.258357
C	-4.979316	-3.694588	-1.018132
O	-4.985314	-4.121445	0.141485
N	-4.810548	-4.493519	-2.093436
N	-6.602081	-1.929379	-0.917136
C	-7.418445	-1.148593	-1.685545
O	-7.066310	-0.668868	-2.757569
C	-4.569170	-5.924542	-1.951123
C	-8.798609	-0.918468	-1.111231
H	5.695231	0.777716	4.904976
H	3.061042	-2.260314	4.654965
H	2.654566	-3.518562	3.506136
H	4.985555	-3.770496	4.443252
H	5.756580	-1.347451	2.965557
H	8.170766	0.329579	-3.938741
H	9.099856	-1.098348	-3.484561
H	7.673010	0.093074	-0.219810
H	5.469645	-1.065943	0.361086
H	6.629944	-2.030485	-4.814408
H	4.572343	-3.401323	-5.020722
H	3.602095	-2.713968	-0.866447
H	3.078227	-3.742304	-3.084433
H	3.039604	4.871200	-2.323059
H	1.923079	6.183864	-2.774764
H	2.572137	5.314874	0.112303
H	1.478521	6.618796	-0.329326
H	1.069360	3.717296	-0.938865
H	-1.972257	6.349689	-0.624356
H	-0.555117	6.622413	0.305753
H	-2.282188	4.016133	-1.170632
H	-0.946257	3.194984	-1.817319
H	-4.304631	-1.519478	0.522688
H	-4.549669	-0.268396	-0.723732
H	-2.008778	2.547935	4.335506
H	-1.901783	0.842967	4.816034
H	-4.274599	0.482026	4.207941
H	-5.644424	2.732129	0.734561
H	-6.170624	1.600699	2.837864
H	1.162797	3.484854	-3.474843
H	0.836131	2.000136	-4.381961
H	2.697214	0.830810	-3.286892
H	3.693696	1.032863	0.626595
H	4.395169	0.831007	-1.658206
H	-2.008567	-3.862496	-0.318079
H	-2.930103	1.962744	5.738926
H	-4.578007	3.881525	1.544453
H	-6.317686	3.341891	3.166956
H	2.345186	2.892689	-4.652136
H	3.419685	6.553437	-1.899028
H	5.071235	2.394253	-1.164659
H	3.332415	2.749919	0.483488
H	7.083122	0.198646	5.831570
H	7.123568	0.161268	4.048722
H	9.191566	0.363375	-2.495541
H	5.019746	-3.572263	2.683832
H	-5.167482	-1.988877	-2.374709
H	-2.958337	-4.649856	0.552732
H	-0.232558	-2.132409	0.838861
H	-9.544062	-1.198653	-1.860177
H	-8.992371	-1.473675	-0.189558
H	-8.926387	0.149984	-0.913490
H	1.319134	-3.524447	-0.304765
H	1.540797	-0.425339	2.133267
H	-4.747282	-4.069388	-3.006328
H	-6.911757	-2.289100	-0.025555
H	-5.384390	-6.389936	-1.390314
H	-4.513560	-6.372470	-2.944442
H	-3.631024	-6.100188	-1.414804