116

C	6.490995	0.980847	4.911735
C	6.13289		-0.475725	5.110863
O	6.400949	-1.07401	6.153107
N	5.489883	-1.021103	4.054316
C	4.875548	-2.327372	4.105821
C	3.407232	-2.265057	3.695458
C	3.238931	-1.851656	2.230962
O	3.974852	-0.928315	1.768813
O	2.360274	-2.497966	1.590237
C	-5.164967	-2.516591	-0.847549
C	-3.979795	-1.753269	-0.260016
S	-2.813569	-1.301558	-1.603801
C	8.512406	-0.469032	-2.974057
C	7.406521	-0.903019	-2.062796
C	7.184951	-0.528898	-0.755531
C	6.349015	-1.817739	-2.403902
N	6.07008		-1.170434	-0.25256
C	5.535681	-1.958066	-1.247001
C	5.993171	-2.51592	-3.572911
C	4.399592	-2.770234	-1.218831
C	4.847804	-3.30258	-3.559167
C	4.058538	-3.420344	-2.393534
C	2.43377		5.538198	-2.804259
C	1.635145	5.599653	-1.501264
N	0.672494	4.499748	-1.438389
C	-0.656116	4.602165	-1.376746
N	-1.225459	5.760371	-0.926807
N	-1.435561	3.626025	-1.820892
C	-2.617658	2.344441	4.514689
C	-3.826114	1.902934	3.705776
O	-4.722767	3.018059	3.668019
C	-3.386792	1.465348	2.32373
S	-2.192291	0.18243		2.262947
C	-3.881067	2.034789	1.19788
S	-3.271546	1.563057	-0.363408
C	-5.036585	3.009776	1.270947
C	-5.698082	2.913648	2.645076
C	1.536458	2.020219	-4.174189
C	2.218538	1.387696	-2.972355
O	3.307439	2.242041	-2.601901
C	1.258074	1.20381		-1.810209
S	-0.361794	0.607336	-2.199105
C	1.62702		1.507579	-0.539468
S	0.477744	1.409933	0.79649
C	3.045706	1.919567	-0.195923
C	3.954983	1.767481	-1.4187
W	-1.357402	-0.079442	0.052467
O	1.520035	-1.779596	-0.615691
C	-0.713178	-1.685875	1.008006
C	-0.323212	-1.854623	-0.270225
C	-5.199473	-3.996664	-0.418908
O	-5.900128	-4.376075	0.520353
N	-4.434559	-4.835715	-1.165536
N	-6.447878	-1.943216	-0.459339
C	-7.38844	-1.609543	-1.397181
O	-7.164101	-1.536763	-2.600147
C	-4.396186	-6.267264	-0.922329
C	-8.77039	-1.31623	-0.833094
H	5.853187	1.595709	5.556074
H	2.879756	-1.538096	4.326751
H	2.927177	-3.236622	3.837192
H	4.989623	-2.696852	5.128521
H	5.195532	-0.471933	3.250687
H	8.125445	0.005798	-3.885383
H	9.132514	-1.315637	-3.298156
H	7.754397	0.151364	-0.135653
H	5.567515	-0.992881	0.61677
H	6.596597	-2.431837	-4.473918
H	4.549886	-3.835796	-4.458585
H	3.799705	-2.870872	-0.324751
H	3.165557	-4.037983	-2.414445
H	2.94553		4.576175	-2.894076
H	1.773748	5.666125	-3.667625
H	2.304413	5.537817	-0.635426
H	1.086306	6.54232		-1.42999
H	1.039846	3.548683	-1.530951
H	-2.234562	5.771295	-0.889652
H	-0.765049	6.23147		-0.161627
H	-2.31266	3.410074	-1.33457
H	-1.00233	2.742231	-2.147884
H	-3.458361	-2.338042	0.504497
H	-4.359948	-0.845259	0.210572
H	-2.074852	3.127462	3.97708
H	-1.937573	1.507869	4.683681
H	-4.330936	1.064957	4.221516
H	-5.762123	2.786129	0.478464
H	-6.249831	1.962485	2.730395
H	1.054996	2.966439	-3.910831
H	0.77667		1.35118		-4.580903
H	2.628602	0.407885	-3.270908
H	3.414368	1.280552	0.615994
H	4.23763		0.714439	-1.552889
H	1.940329	-2.018015	0.312589
H	-2.938317	2.742265	5.484151
H	-4.689326	4.04026		1.104013
H	-6.40696	3.732643	2.808897
H	2.281223	2.22192		-4.951268
H	3.182283	6.337795	-2.820991
H	4.874086	2.351294	-1.312491
H	3.061148	2.955023	0.179012
H	7.524225	1.145864	5.229484
H	6.372287	1.322173	3.879743
H	9.175119	0.252847	-2.484481
H	5.410627	-3.025807	3.446089
H	-5.141392	-2.452883	-1.938791
H	1.701665	-0.840846	-0.779668
H	-0.664073	-2.17996	1.970212
H	-9.454655	-2.113037	-1.142268
H	-8.789542	-1.237412	0.257395
H	-9.135895	-0.382895	-1.268213
H	-0.441172	-2.597275	-1.043373
H	-3.834484	-4.429395	-1.870863
H	-6.779861	-2.264784	0.442391
H	-5.157254	-6.489124	-0.173789
H	-4.615106	-6.822052	-1.84133
H	-3.419609	-6.589154	-0.541607