117

C	6.494588	-0.538078	4.878015
C	5.835307	-1.902260	4.803102
O	5.410192	-2.493170	5.788136
N	5.720347	-2.401049	3.531088
C	4.763384	-3.459822	3.244048
C	3.317554	-2.977747	3.367548
C	3.027411	-1.749890	2.529619
O	3.771859	-1.293856	1.666874
O	1.857222	-1.212562	2.854765
C	-5.255253	-1.983402	-1.534097
C	-4.255522	-1.188677	-0.707170
S	-2.553710	-1.387426	-1.374862
C	8.496901	0.050893	-3.123099
C	7.330054	-0.493871	-2.352244
C	7.059098	-0.359567	-1.011077
C	6.254156	-1.279931	-2.901342
N	5.881578	-1.018617	-0.688711
C	5.365802	-1.585918	-1.834401
C	5.957759	-1.751691	-4.192402
C	4.199951	-2.335640	-2.023020
C	4.803655	-2.499173	-4.385853
C	3.936019	-2.785891	-3.310721
C	2.640268	6.021517	-1.357610
C	1.741346	5.778627	-0.144140
N	0.714988	4.766993	-0.430457
C	-0.582273	4.982324	-0.648314
N	-1.173849	6.118876	-0.205780
N	-1.310020	4.115658	-1.357003
C	-2.556539	1.211572	4.898716
C	-3.729840	1.019859	3.946340
O	-4.594466	2.137534	4.147513
C	-3.242986	0.922534	2.509995
S	-2.067046	-0.342307	2.176307
C	-3.676520	1.773478	1.544738
S	-2.963505	1.755950	-0.046424
C	-4.808106	2.739289	1.821772
C	-5.531857	2.321583	3.101473
C	1.621592	3.018779	-3.594554
C	2.335822	2.087645	-2.624944
O	3.440302	2.818174	-2.086631
C	1.422559	1.587870	-1.513774
S	-0.186796	1.058930	-1.988903
C	1.836304	1.581395	-0.220846
S	0.709817	1.156749	1.069511
C	3.253795	1.943179	0.172302
C	4.124066	2.074660	-1.079507
W	-1.174223	-0.029219	0.031162
O	-2.282333	-4.854597	-0.224407
C	-0.106532	-1.628486	0.118335
C	0.563559	-2.763435	0.199830
C	-5.050726	-3.497732	-1.417484
O	-5.144523	-4.055580	-0.317649
N	-4.835138	-4.165841	-2.568915
N	-6.613748	-1.717073	-1.091013
C	-7.401475	-0.796137	-1.719817
O	-7.007688	-0.115732	-2.661433
C	-4.623185	-5.609531	-2.590430
C	-8.814621	-0.698489	-1.187619
H	5.720011	0.235667	4.825861
H	3.090034	-2.740468	4.411201
H	2.612330	-3.763747	3.069098
H	4.932560	-4.275876	3.949497
H	5.872905	-1.752266	2.772853
H	8.170924	0.725228	-3.924683
H	9.077448	-0.750867	-3.595758
H	7.625660	0.156846	-0.247759
H	5.409948	-1.036911	0.206063
H	6.621793	-1.534866	-5.024982
H	4.560705	-2.871504	-5.376892
H	3.532973	-2.552162	-1.194287
H	3.041309	-3.374386	-3.494463
H	3.112468	5.090996	-1.682481
H	2.062306	6.431555	-2.191505
H	2.324986	5.425818	0.711706
H	1.250439	6.705329	0.161576
H	1.052135	3.822375	-0.627230
H	-2.142868	6.275566	-0.435853
H	-0.818775	6.579539	0.616921
H	-2.276944	3.960263	-1.083494
H	-0.872184	3.242052	-1.685394
H	-4.261793	-1.530249	0.331802
H	-4.531344	-0.135689	-0.743382
H	-1.971780	2.087006	4.601191
H	-1.902640	0.337307	4.898226
H	-4.274673	0.095892	4.212516
H	-5.501392	2.752797	0.971436
H	-6.108051	1.398007	2.927012
H	1.168968	3.868094	-3.076146
H	0.840226	2.488351	-4.141529
H	2.724067	1.217957	-3.181301
H	3.658603	1.159478	0.822907
H	4.385747	1.081841	-1.466650
H	-1.966696	-3.979314	-0.492311
H	-2.930730	1.370260	5.914892
H	-4.420016	3.760884	1.937638
H	-6.226504	3.096586	3.439272
H	2.345736	3.410739	-4.314937
H	3.422643	6.742010	-1.097642
H	5.051702	2.614173	-0.869731
H	3.266799	2.876022	0.756201
H	7.004005	-0.436743	5.837639
H	7.207954	-0.365948	4.066662
H	9.177178	0.612427	-2.475210
H	4.966020	-3.830758	2.236021
H	-5.200561	-1.650269	-2.574525
H	-3.201821	-4.694452	0.042634
H	0.583776	-3.347945	1.119023
H	-9.505555	-1.068296	-1.951607
H	-8.978085	-1.262720	-0.265426
H	-9.057331	0.352722	-1.013812
H	1.095694	-3.170835	-0.659855
H	1.632635	-0.463679	2.248485
H	-4.670644	-3.632219	-3.409068
H	-6.954199	-2.255363	-0.306716
H	-5.456490	-6.112158	-2.092787
H	-4.570568	-5.940805	-3.628779
H	-3.695387	-5.864744	-2.068258