117

C	6.446588	1.113505	4.809009
C	5.961448	-0.269807	5.202545
O	6.056410	-0.698972	6.351868
N	5.432867	-0.948896	4.160947
C	4.696063	-2.184500	4.296833
C	3.270945	-2.033649	3.727818
C	3.175556	-1.561129	2.259348
O	4.069609	-0.733951	1.847386
O	2.211998	-1.987797	1.585761
C	-5.262962	-2.422685	-0.816353
C	-4.165263	-1.571251	-0.172198
S	-2.562909	-1.814271	-1.048664
C	8.525038	-1.190650	-2.855514
C	7.349332	-1.435632	-1.958111
C	7.078448	-0.855072	-0.738532
C	6.265945	-2.347959	-2.212610
N	5.893702	-1.340288	-0.222253
C	5.373926	-2.256064	-1.105261
C	5.962384	-3.230921	-3.265110
C	4.195713	-3.009952	-1.026406
C	4.800919	-3.987913	-3.189540
C	3.933536	-3.874171	-2.080257
C	2.722547	5.062811	-3.394746
C	2.487752	5.298835	-1.905164
N	1.404538	4.436384	-1.413725
C	0.296407	4.841048	-0.796897
N	0.257901	6.029807	-0.160362
N	-0.810859	4.095864	-0.844343
C	-2.583590	2.826273	4.097036
C	-3.756207	2.477622	3.187987
O	-4.478533	3.685329	2.956253
C	-3.285587	1.857633	1.878830
S	-2.198594	0.488660	2.006585
C	-3.724194	2.303004	0.669124
S	-3.107534	1.650310	-0.835658
C	-4.799277	3.366634	0.579455
C	-5.463784	3.543264	1.946173
C	1.688782	1.469621	-4.433189
C	2.290588	0.967781	-3.130267
O	3.438054	1.752965	-2.818451
C	1.328526	1.003784	-1.950694
S	-0.388818	0.940039	-2.284925
C	1.806207	1.161400	-0.684296
S	0.695779	1.193580	0.697579
C	3.273342	1.366183	-0.391645
C	4.110431	1.213762	-1.668068
W	-1.259491	0.195350	-0.107972
O	-3.355845	-3.561230	2.478231
C	-1.268401	-1.889055	0.237080
C	-0.051438	-1.613278	-0.486462
C	-5.255076	-3.833591	-0.225526
O	-5.694060	-4.010273	0.917864
N	-4.756709	-4.822486	-0.987269
N	-6.574052	-1.879291	-0.497474
C	-7.396402	-1.356289	-1.461167
O	-7.017120	-1.131906	-2.603963
C	-4.663609	-6.192424	-0.509742
C	-8.810147	-1.071076	-0.991780
H	5.704165	1.856679	5.122078
H	2.727242	-1.298222	4.337108
H	2.730162	-2.980147	3.814877
H	4.671580	-2.449480	5.356297
H	5.241148	-0.489145	3.269729
H	8.213347	-0.843524	-3.849145
H	9.117021	-2.102341	-3.008891
H	7.653635	-0.119476	-0.191514
H	5.413002	-1.073144	0.642439
H	6.628645	-3.321906	-4.119577
H	4.553018	-4.679248	-3.990845
H	3.513577	-2.932459	-0.185325
H	3.035100	-4.485807	-2.048095
H	3.041800	4.032172	-3.569389
H	1.818319	5.271696	-3.973588
H	3.397305	5.095442	-1.329893
H	2.201183	6.337900	-1.726242
H	1.476599	3.438726	-1.626790
H	-0.625136	6.402559	0.147169
H	1.099095	6.429893	0.220223
H	-1.475522	4.119556	-0.083806
H	-0.815712	3.236901	-1.397799
H	-4.020632	-1.811760	0.882044
H	-4.430298	-0.521472	-0.276610
H	-1.871736	3.472682	3.575070
H	-2.059832	1.926324	4.424469
H	-4.417027	1.762276	3.710356
H	-5.541827	3.083392	-0.176808
H	-6.116026	2.682415	2.165366
H	1.277002	2.478020	-4.333065
H	0.890860	0.807375	-4.772388
H	2.604172	-0.080232	-3.278862
H	3.598973	0.633378	0.362176
H	4.330685	0.155429	-1.848903
H	-3.169841	-4.417855	2.883752
H	-2.952175	3.356938	4.980267
H	-4.370714	4.323776	0.250806
H	-6.076203	4.449014	1.973795
H	2.469779	1.492442	-5.198459
H	3.515520	5.729824	-3.749084
H	5.060418	1.746458	-1.586865
H	3.410417	2.366068	0.051597
H	7.374021	1.338164	5.341728
H	6.611242	1.220099	3.733751
H	9.194639	-0.432114	-2.437188
H	5.217571	-2.992454	3.763659
H	-5.177588	-2.408435	-1.906554
H	-4.252323	-3.760679	2.161787
H	-1.453565	-2.487016	1.124184
H	-9.487019	-1.785158	-1.470786
H	-8.933803	-1.140754	0.091701
H	-9.101470	-0.072282	-1.325945
H	0.044640	-1.907055	-1.532405
H	0.879232	-1.669241	0.093642
H	-4.442406	-4.603080	-1.921002
H	-6.945878	-2.157277	0.401427
H	-5.600082	-6.742058	-0.656737
H	-3.863576	-6.703607	-1.052441
H	-4.421908	-6.194684	0.556316