116

C	6.407669	1.293580	4.824604
C	6.009001	-0.140457	5.060866
O	6.393462	-0.760858	6.050985
N	5.207380	-0.666498	4.102253
C	4.747403	-2.029329	4.187991
C	3.283099	-2.197365	3.806930
C	3.095400	-2.072848	2.303171
O	3.766925	-1.241692	1.663982
O	2.245739	-2.919927	1.827078
C	-5.315548	-2.333322	-0.713870
C	-4.068414	-1.690325	-0.096192
S	-2.731047	-1.586930	-1.363169
C	8.377352	-0.567169	-2.987690
C	7.306144	-0.993452	-2.033509
C	7.154551	-0.631956	-0.713938
C	6.210533	-1.876715	-2.338325
N	6.040994	-1.246802	-0.174630
C	5.438592	-2.004814	-1.152633
C	5.794552	-2.560012	-3.496827
C	4.277871	-2.780473	-1.088218
C	4.637857	-3.326500	-3.441399
C	3.889260	-3.429400	-2.246845
C	2.375423	5.518188	-3.091251
C	2.181442	5.356919	-1.582019
N	1.202249	4.306276	-1.288806
C	-0.119674	4.504322	-1.175053
N	-0.575697	5.662951	-0.614900
N	-0.984834	3.625577	-1.649029
C	-2.684737	2.752098	4.393905
C	-3.803038	2.344359	3.442986
O	-4.640684	3.493603	3.262583
C	-3.273330	1.821847	2.122830
S	-1.923161	0.687429	2.186487
C	-3.770599	2.232598	0.939411
S	-3.091100	1.602408	-0.574552
C	-4.928606	3.199533	0.863451
C	-5.600309	3.302571	2.234958
C	1.428211	1.948953	-4.283483
C	2.172856	1.275652	-3.140130
O	3.240213	2.163443	-2.754744
C	1.317482	0.947774	-1.927451
S	-0.392939	0.509984	-2.151404
C	1.835675	1.014165	-0.676281
S	0.856498	0.634533	0.736902
C	3.267001	1.435727	-0.418854
C	4.044905	1.566055	-1.731474
W	-1.328988	0.040265	-0.006295
O	-1.028043	-1.792241	0.927124
C	0.698431	-2.942021	-0.280871
C	-0.398102	-2.845982	0.579178
C	-5.467962	-3.824635	-0.346451
O	-6.388314	-4.221106	0.373651
N	-4.545390	-4.665515	-0.880052
N	-6.569344	-1.686390	-0.317871
C	-7.483115	-1.292771	-1.267824
O	-7.212326	-1.121355	-2.450141
C	-4.594261	-6.092643	-0.607099
C	-8.905516	-1.087816	-0.745394
H	6.105585	1.893661	5.688041
H	2.668880	-1.433807	4.300647
H	2.914127	-3.173881	4.130454
H	4.917794	-2.343278	5.220733
H	4.926850	-0.151009	3.279269
H	7.959367	-0.057450	-3.865629
H	8.954457	-1.422322	-3.363838
H	7.770478	0.021112	-0.109799
H	5.606470	-1.092460	0.727538
H	6.364685	-2.483248	-4.419662
H	4.297309	-3.854137	-4.328489
H	3.704603	-2.852659	-0.175610
H	2.985959	-4.032357	-2.239108
H	2.748368	4.585188	-3.518786
H	1.432808	5.785786	-3.579000
H	3.120975	5.076533	-1.098573
H	1.847598	6.293145	-1.127568
H	1.482990	3.357111	-1.544621
H	-1.576680	5.734904	-0.498153
H	-0.031892	6.040383	0.147762
H	-1.885507	3.433960	-1.187447
H	-0.638397	2.751105	-2.067026
H	-3.717664	-2.230026	0.789435
H	-4.345811	-0.681134	0.208313
H	-2.031624	3.489757	3.917579
H	-2.078334	1.887774	4.668596
H	-4.407089	1.552846	3.926820
H	-5.658293	2.866764	0.114092
H	-6.187834	2.389234	2.429016
H	0.938865	2.873532	-3.962277
H	0.658407	1.285405	-4.682771
H	2.629754	0.347792	-3.525348
H	3.747885	0.697576	0.230056
H	4.387165	0.579320	-2.071691
H	0.886325	-2.130299	-0.979238
H	-3.113958	3.194425	5.299525
H	-4.585307	4.196526	0.543092
H	-6.281153	4.159786	2.284303
H	2.134583	2.195053	-5.082828
H	3.103758	6.310692	-3.297111
H	4.925046	2.206989	-1.617259
H	3.271917	2.389735	0.132097
H	7.498348	1.356050	4.757656
H	5.971688	1.730908	3.921831
H	9.084761	0.121973	-2.514128
H	5.363880	-2.683251	3.553658
H	-5.261130	-2.227886	-1.801407
H	1.661432	-2.795307	0.807153
H	0.937664	-3.946364	-0.629370
H	-9.456948	-2.030336	-0.837318
H	-8.929749	-0.778719	0.303952
H	-9.401341	-0.337750	-1.363253
H	-0.678086	-3.742413	1.150443
H	-3.738810	-4.256366	-1.340802
H	-6.967668	-2.097322	0.519978
H	-5.623193	-6.350642	-0.355053
H	-4.278930	-6.652487	-1.492689
H	-3.950595	-6.378666	0.235295