80

C	-3.825917	-2.781732	-1.078024
C	-4.096082	-1.485211	-1.539217
C	-5.312803	-1.215703	-2.180745
C	-6.248246	-2.234086	-2.355279
C	-5.988138	-3.527535	-1.895255
C	-4.770993	-3.791379	-1.262783
O	-3.229387	-0.449086	-1.351579
O	-1.119509	-0.867824	0.084883
O	1.182730	-2.139988	0.516118
C	1.331051	-3.083173	1.371532
O	2.280814	-3.900670	1.381849
C	0.300714	-3.173222	2.494261
N	4.366941	-3.582284	-0.301441
C	4.531433	-2.322929	-0.730130
N	5.728060	-1.885822	-1.183983
C	6.924616	-2.704789	-1.181779
N	3.482978	-1.506083	-0.759219
O	-2.279571	0.012282	2.457851
C	-3.508411	-0.138508	2.483944
C	-4.211260	-0.533867	3.768965
N	-4.294196	0.027774	1.398431
O	3.885891	1.421242	-0.896779
C	5.145047	1.804430	-0.667400
C	5.337263	3.174937	-0.054794
O	6.070097	1.064663	-0.959735
O	1.784628	2.664974	-0.032126
C	0.670136	1.752577	-0.328142
C	0.986125	2.081538	1.070951
C	0.138764	3.120345	1.798502
C	-1.194272	3.424172	1.096231
C	-1.023510	3.644132	-0.424685
C	-0.505481	2.344591	-1.060416
C	1.725114	1.090154	1.936515
H	-0.247336	4.411741	-0.559624
H	-1.656158	4.300338	1.564375
H	0.740880	4.032390	1.897676
H	-6.718627	-4.318443	-2.034001
H	-7.187356	-2.013927	-2.855908
H	-5.502919	-0.208188	-2.537841
H	-4.551889	-4.793097	-0.902915
H	-2.884244	-2.978553	-0.574850
H	-2.373276	-0.751363	-0.923173
H	-1.394463	-0.527208	0.959710
H	-0.287017	-1.396161	0.218780
H	-0.659111	-2.746672	2.195232
H	0.669260	-2.599146	3.352344
H	0.176839	-4.209310	2.815718
H	-3.786949	0.040344	4.594872
H	-4.010468	-1.591671	3.966536
H	-5.292866	-0.381282	3.737002
H	-5.267704	-0.230184	1.428333
H	-3.873672	0.131348	0.476062
H	7.256636	-2.977051	-0.169549
H	7.726862	-2.137890	-1.655603
H	6.773220	-3.621719	-1.761688
H	5.191699	-4.124235	-0.099243
H	3.507319	-3.778839	0.280388
H	2.572585	-1.796402	-0.326100
H	3.614247	-0.541432	-1.038997
H	5.839717	-0.875773	-1.279784
H	4.791693	3.247393	0.891276
H	4.932787	3.942306	-0.722491
H	6.398062	3.353842	0.113606
H	3.160106	2.014425	-0.517912
H	0.997729	0.780745	-0.692407
H	-0.060976	2.760930	2.813479
H	-1.880420	2.582923	1.251484
H	-1.278019	1.569794	-1.045109
H	-0.240105	2.506814	-2.112013
C	-2.302348	4.177877	-1.057143
H	1.001433	0.488017	2.493728
H	2.337021	0.406964	1.344711
H	2.362296	1.611035	2.660948
C	-3.215214	3.407744	-1.659334
C	-2.495527	5.671953	-0.940452
H	-4.120935	3.845215	-2.071371
H	-3.113404	2.332827	-1.767315
H	-1.710763	6.211683	-1.486662
H	-3.464052	5.987540	-1.336920
H	-2.432037	6.006193	0.102919