73

C	1.011440	-2.596061	-1.184836
C	0.151669	-1.376163	-0.803079
C	-1.023198	-1.838486	0.109995
C	-0.514141	-2.608895	1.339962
C	0.270846	-3.853869	0.905886
C	1.452844	-3.466577	0.005615
O	-1.868013	-2.691736	-0.633463
C	-0.359854	-0.662463	-2.050397
O	0.959511	-0.357713	-0.095183
O	-4.023931	-1.220999	-0.983312
C	-5.250618	-1.543021	-0.786810
O	-6.176704	-0.719377	-0.604588
C	-5.566306	-3.046659	-0.809677
N	-3.347720	1.262554	-0.263782
C	-4.233593	2.237231	-0.110699
N	-5.528258	2.004891	-0.354892
C	-6.534903	3.047849	-0.280707
N	-3.811390	3.478419	0.251096
O	-1.409231	3.291168	1.942151
C	-0.620735	2.366216	1.837976
C	0.204021	1.880073	3.010534
O	-0.516287	1.732461	0.662132
O	2.576914	-0.730057	1.981103
C	3.742478	-1.158412	1.988668
N	4.433502	-1.423085	0.865289
C	4.436161	-1.429655	3.299584
O	3.352444	-0.120029	-1.543875
C	4.293295	0.878297	-1.532227
C	4.106096	2.100577	-0.879472
C	5.143632	3.036243	-0.863188
C	6.364525	2.764856	-1.484782
C	6.534615	1.545798	-2.146151
C	5.507846	0.604730	-2.173128
H	0.627948	-4.407527	1.782676
H	-1.567897	-0.942270	0.442874
H	1.953827	-4.364295	-0.376734
H	-0.409067	-4.514970	0.358253
H	-1.382095	-2.892870	1.944594
H	7.165391	3.496865	-1.463860
H	7.473392	1.323808	-2.645706
H	5.625458	-0.344675	-2.686137
H	4.992217	3.983666	-0.353760
H	3.160548	2.312399	-0.387437
H	2.506647	0.120808	-1.103023
H	1.491899	-0.729679	0.650171
H	0.106739	0.952831	0.578367
H	1.118597	1.362710	2.710351
H	-0.405803	1.173574	3.584610
H	0.432975	2.728602	3.655814
H	3.833107	-2.137290	3.874289
H	4.481449	-0.500492	3.874346
H	5.447001	-1.828235	3.187443
H	5.394532	-1.720743	0.907446
H	4.041191	-1.176154	-0.042886
H	-6.680102	3.425675	0.741867
H	-7.484031	2.624355	-0.611499
H	-6.290182	3.890779	-0.937474
H	-4.501844	4.108432	0.628307
H	-2.891901	3.538069	0.693432
H	-2.373220	1.456218	-0.069863
H	-3.639065	0.304186	-0.603337
H	-5.806444	1.007643	-0.517169
H	-4.805823	-3.595736	-0.247950
H	-5.529814	-3.403717	-1.844630
H	-6.559698	-3.240899	-0.402482
H	-2.714749	-2.209188	-0.829489
H	0.119181	-1.963654	1.963891
H	1.876628	-2.263109	-1.769058
H	0.386249	-3.203937	-1.846966
H	2.201433	-2.935458	0.603624
H	-1.053979	-1.311695	-2.585053
H	-0.889603	0.258078	-1.786858
H	0.471635	-0.400975	-2.713094