73

C	4.063916	1.694682	-1.284123
C	4.309539	0.326830	-1.432848
C	5.560743	-0.120127	-1.873031
C	6.568675	0.800994	-2.147007
C	6.340906	2.169931	-1.988426
C	5.083576	2.607406	-1.566430
O	3.389683	-0.642423	-1.116803
O	0.916776	-0.313550	0.276889
C	0.088005	-1.524257	0.491871
C	1.009648	-2.772422	0.646926
C	0.972840	-3.750297	-0.541021
C	1.078985	-3.019375	-1.886024
C	-0.005155	-1.918869	-2.040679
C	-0.817075	-1.658769	-0.760103
C	-0.744249	-1.298437	1.754596
O	-1.725591	-2.724229	-0.556288
O	-3.985680	-1.466260	0.133866
C	-5.227105	-1.782561	0.072494
C	-5.559659	-3.251921	0.368327
O	-6.153846	-0.981390	-0.191600
O	-0.558183	1.913706	0.222856
C	-0.691989	2.862759	1.161147
O	-1.481680	3.773041	0.971335
C	0.098546	2.734292	2.445191
O	2.590562	0.118008	2.306246
C	3.700132	-0.395565	2.524689
C	4.347367	-0.239090	3.878860
N	4.374463	-1.105813	1.602660
N	-3.412194	1.115592	-0.191559
C	-4.294372	2.043085	-0.541054
N	-5.574001	1.707348	-0.735010
C	-6.581611	2.663184	-1.157519
N	-3.875403	3.322954	-0.726502
H	0.998500	-3.744533	-2.703017
H	0.035193	-4.309709	-0.507820
H	0.736783	-3.308605	1.562370
H	7.126896	2.887124	-2.201811
H	7.536990	0.445767	-2.487603
H	5.721429	-1.186444	-1.997107
H	4.889121	3.669633	-1.448737
H	3.089665	2.037677	-0.946040
H	2.505273	-0.293053	-0.875117
H	1.536672	-0.235542	1.048784
H	0.055405	1.139955	0.399642
H	1.053381	2.219332	2.313799
H	-0.497540	2.147931	3.153715
H	0.249006	3.727630	2.868146
H	3.644256	-0.572529	4.646005
H	4.540786	0.823029	4.054577
H	5.283467	-0.792247	3.983226
H	5.294253	-1.464767	1.800342
H	4.029359	-1.145893	0.643495
H	-6.762813	3.442231	-0.403603
H	-7.517566	2.122877	-1.303632
H	-6.315105	3.144674	-2.106460
H	-4.573640	4.048566	-0.748665
H	-2.985460	3.579457	-0.295322
H	-2.433878	1.374965	-0.159645
H	-3.684925	0.095558	-0.092848
H	-5.825834	0.703130	-0.570329
H	-5.220891	-3.504157	1.378035
H	-5.015532	-3.898948	-0.326807
H	-6.631689	-3.434387	0.282281
H	-2.594681	-2.350632	-0.267591
H	-1.359286	-0.710495	-0.887151
H	2.036297	-2.422513	0.798293
H	1.792780	-4.471745	-0.437287
H	0.456803	-0.980810	-2.368245
H	-0.733993	-2.196206	-2.807747
H	2.074535	-2.570299	-1.969847
H	-0.093218	-1.190135	2.629438
H	-1.366374	-0.402338	1.665021
H	-1.410787	-2.148175	1.911123