80

C	-4.996141	-3.769399	-0.319866
C	-6.213876	-3.667711	-0.996210
C	-6.395824	-2.633810	-1.918243
C	-5.383771	-1.705100	-2.149722
C	-3.973439	-2.843125	-0.539656
C	-4.172919	-1.804600	-1.453893
H	-3.030702	-2.920499	-0.004611
H	-5.510131	-0.899124	-2.865793
H	-7.331987	-2.548030	-2.462592
H	-7.003187	-4.390403	-0.815881
H	-4.835956	-4.574095	0.392106
C	0.721715	-2.316028	2.209112
C	-0.140810	-1.578280	3.210289
H	-1.085839	-1.227846	2.788269
H	0.414246	-0.698574	3.555255
H	-0.316633	-2.225714	4.069460
O	1.532151	-3.162389	2.549293
O	0.622887	-1.994371	0.912500
C	4.347973	-2.507985	0.315886
N	5.635686	-2.301747	0.019789
N	3.437231	-1.610377	-0.036777
N	3.956079	-3.650715	0.940426
H	4.663421	-4.178913	1.426442
H	3.041384	-3.634013	1.396828
H	2.465400	-1.794330	0.180492
H	3.702496	-0.735085	-0.567769
H	5.883409	-1.364467	-0.378720
H	7.610804	-2.903030	-0.089524
C	6.671298	-3.272189	0.323256
H	6.458339	-4.246056	-0.133291
C	5.246309	1.044869	-1.223995
O	6.190009	0.291258	-0.891922
O	4.016227	0.682061	-1.285061
C	5.539312	2.501350	-1.612184
H	6.565900	2.771395	-1.360922
H	5.388451	2.622736	-2.690169
H	4.834150	3.169012	-1.108914
H	2.689657	1.675676	-1.277532
C	-4.467547	1.578263	2.696038
C	-3.746230	1.017957	1.495996
O	-2.574493	0.622131	1.609415
N	-4.415265	1.003456	0.329192
H	-4.003662	0.548588	-0.484798
H	-5.382184	1.281442	0.285138
H	-4.398592	0.858429	3.515173
H	-5.518332	1.810695	2.508237
H	-3.954652	2.488605	3.019561
O	-3.248756	-0.817061	-1.685081
H	-2.405193	-0.938093	-1.196665
O	-0.882750	-0.168107	-0.278839
H	-0.013031	-1.267941	0.637004
H	-1.463191	0.322918	0.355351
H	6.816919	-3.411799	1.404175
O	1.839484	2.176809	-1.157151
C	0.509090	-0.182837	-2.208420
H	1.078465	-0.997465	-1.750991
H	1.187079	0.393144	-2.839793
H	-0.277863	-0.619020	-2.832484
C	-0.098224	0.734994	-1.153098
C	0.998774	1.430036	-0.301635
C	-1.025878	1.802064	-1.805207
H	-2.064324	1.481019	-1.672114
H	-0.854841	1.803641	-2.886196
C	-0.841607	3.235082	-1.271736
H	0.079279	3.650680	-1.686347
H	-1.675788	3.855723	-1.618633
H	0.071992	1.782136	1.636763
C	-0.770886	3.262397	0.260916
C	-0.713357	4.650553	0.878945
C	-0.505513	5.768825	0.176337
H	-0.465059	6.738881	0.664641
H	-0.356668	5.763516	-0.897679
C	-0.908031	4.700694	2.376640
H	-0.874264	5.726203	2.753909
H	-1.874401	4.263437	2.663193
H	-0.139088	4.121829	2.902283
C	0.405519	2.366273	0.771548
H	1.237910	2.992969	1.104377
H	-1.699764	2.804429	0.630552
H	1.576207	0.646676	0.211965