80

C	-3.852423	-1.952187	-1.596335
C	-4.174838	-0.616915	-1.341407
C	-5.465024	-0.140846	-1.601090
C	-6.434845	-1.005906	-2.100995
C	-6.129704	-2.346355	-2.348014
C	-4.835039	-2.807795	-2.101539
O	-3.292737	0.281126	-0.792360
O	-0.755896	-0.176498	0.548161
O	0.785562	-2.230465	-0.241492
C	1.011027	-3.408873	0.360157
O	1.830789	-4.170335	-0.125663
C	0.279713	-3.721628	1.648369
N	4.154945	-3.120855	-1.669070
C	4.511603	-1.929495	-1.121128
N	5.767809	-1.479548	-1.216268
C	6.820313	-2.214580	-1.895376
N	3.590349	-1.195239	-0.511300
O	-2.349816	-1.380839	2.298955
C	-3.467752	-0.986632	2.670410
C	-4.083127	-1.548692	3.927174
N	-4.174493	-0.057705	2.002243
O	4.066869	1.161467	0.625277
C	5.270261	1.603417	0.571036
C	5.510691	2.959632	1.246819
O	6.225241	0.999689	0.030417
O	1.775177	2.488958	0.612253
C	0.878003	1.560261	0.039497
C	0.044965	0.898108	1.171143
C	-0.868916	1.956922	1.817524
C	-1.705762	2.780371	0.825740
C	-0.827181	3.419575	-0.262849
C	-0.011990	2.307938	-0.963236
C	0.947979	0.255565	2.226699
H	-0.091877	4.063817	0.237756
H	-2.250862	3.559736	1.371856
H	-0.205234	2.632704	2.367546
H	-6.885851	-3.020073	-2.737894
H	-7.433822	-0.628781	-2.299834
H	-5.685532	0.904667	-1.410356
H	-4.581278	-3.845468	-2.298360
H	-2.847991	-2.316809	-1.397462
H	-2.387467	-0.067343	-0.664647
H	-1.356722	-0.547625	1.246192
H	0.158257	-1.578639	0.189214
H	-0.721183	-3.284842	1.688798
H	0.855684	-3.298617	2.479295
H	0.237057	-4.803112	1.776083
H	-3.371200	-1.436477	4.748474
H	-4.251059	-2.620355	3.786602
H	-5.028212	-1.074917	4.202082
H	-5.100898	0.200136	2.301246
H	-3.851941	0.261453	1.089233
H	7.046743	-3.170866	-1.403481
H	7.725601	-1.607215	-1.867509
H	6.572448	-2.407334	-2.946621
H	4.887445	-3.761951	-1.926952
H	3.294240	-3.545115	-1.319650
H	2.627065	-1.505480	-0.543703
H	3.821963	-0.251593	-0.087368
H	5.968442	-0.547149	-0.782895
H	5.304768	2.870726	2.318343
H	4.814202	3.700978	0.843394
H	6.538576	3.293557	1.098596
H	2.668347	2.063857	0.681693
H	1.421243	0.764442	-0.492548
H	-1.516619	1.475020	2.561310
H	-2.459035	2.142156	0.357344
H	-0.698848	1.614292	-1.462121
H	0.640038	2.733598	-1.732899
C	-1.575328	4.279895	-1.270467
H	0.344960	-0.212368	3.013024
H	1.593325	-0.506142	1.779147
H	1.595853	1.008690	2.677153
C	-2.855197	4.088592	-1.608532
C	-0.760216	5.385418	-1.898580
H	-3.339851	4.717926	-2.350325
H	-3.459388	3.297346	-1.177932
H	0.155664	4.994855	-2.358752
H	-1.324337	5.921684	-2.666681
H	-0.437771	6.110497	-1.140138