313			
			
C	3.204141	-5.625135	3.651219
C	2.604092	-6.525053	2.578266
O	1.395838	-6.581126	2.341734
N	3.509132	-7.246353	1.856201
C	0.792041	-4.195793	-8.089355
C	0.872291	-4.718096	-6.644969
C	-0.425190	-5.387049	-6.180255
C	-0.458840	-5.802545	-4.693366
O	0.606613	-5.894704	-4.047441
O	-1.637732	-6.038970	-4.236826
C	-5.094177	-6.406330	-0.594806
C	-3.890281	-7.160570	-1.199151
C	-2.532671	-6.663853	-0.776191
C	-1.931678	-6.602278	0.456763
N	-1.599823	-6.188416	-1.683374
C	-0.489869	-5.840419	-1.039561
N	-0.662403	-6.085160	0.266254
C	-3.152544	-3.070171	-4.384210
C	-2.192949	-2.169147	-5.150314
O	-2.101227	-2.225134	-6.380245
N	-1.438832	-1.303553	-4.401072
C	-0.486941	-0.394778	-5.021566
C	0.952359	-0.744558	-4.607923
O	1.246949	-0.902231	-3.413531
C	-0.798719	1.088912	-4.679866
C	0.058485	2.060497	-5.463236
C	-0.244128	2.367604	-6.798765
C	1.185073	2.657225	-4.879817
C	0.566214	3.229671	-7.539813
C	1.999475	3.515496	-5.620369
C	1.698315	3.799833	-6.953636
N	1.902202	-0.850067	-5.570392
C	1.762442	-0.671544	-7.032768
C	3.217148	-0.580911	-7.515138
C	3.980368	-1.466244	-6.517544
C	3.285049	-1.171338	-5.183053
C	-4.070699	-2.758715	0.103978
C	-5.171371	-2.191183	-0.810013
O	-6.216766	-2.828201	-0.966678
C	-2.556873	-2.497194	-0.172552
C	-2.014457	-1.096411	-0.459800
O	-1.243192	-0.579581	0.500392
O	-2.223556	-0.508942	-1.519244
N	-4.981786	-0.946510	-1.321711
C	-5.948961	-0.321506	-2.213920
C	-5.312538	0.715273	-3.158623
C	-5.140871	2.092119	-2.583741
C	-3.963123	2.745119	-2.299991
C	-6.199234	3.023240	-2.277672
C	-5.579501	4.220971	-1.810177
C	-7.601660	2.984413	-2.375488
N	-4.223218	4.013013	-1.825890
C	-6.321368	5.349571	-1.444410
C	-8.341541	4.106552	-2.014417
C	-7.706280	5.277646	-1.550575
C	-10.151699	-0.370963	0.434281
C	-9.851976	1.066811	0.872887
C	-11.090281	1.957653	1.094189
C	-12.009458	1.426630	2.204467
C	-10.665588	3.403575	1.390782
C	-3.192226	-5.198411	5.073658
C	-4.558644	-4.542024	5.147529
O	-5.591680	-5.196667	5.268735
N	-4.558700	-3.177135	5.037754
C	-5.784842	-2.395547	5.030713
C	-6.105171	-1.717432	3.685514
C	-7.495460	-1.071155	3.751741
C	-5.040758	-0.685441	3.288653
C	3.644798	7.476360	0.690009
C	3.014070	6.628406	-0.229854
C	3.362427	7.306820	2.051269
C	2.122390	5.635691	0.182416
C	2.474047	6.323043	2.479706
C	1.836131	5.474796	1.552081
O	0.982275	4.558384	2.040193
C	0.618275	10.630720	0.161314
C	-0.217338	10.680269	1.448675
C	-0.535732	9.253718	1.937565
C	-1.481307	11.528483	1.239185
C	-1.243031	9.174924	3.294693
C	8.807327	-0.607353	-2.890145
C	8.549435	0.649992	-3.733996
C	9.574269	1.749272	-3.389382
C	7.098899	1.125082	-3.560756
C	9.526981	2.983119	-4.297340
C	7.131820	5.824880	1.319973
C	7.420214	4.360107	1.095262
C	8.736835	3.880232	1.057328
C	6.373383	3.440447	0.947160
C	9.003040	2.520636	0.889903
C	6.633669	2.079584	0.777701
C	7.949915	1.613617	0.752569
C	-2.185634	7.259904	-3.030584
C	-1.993981	6.890810	-1.696683
C	-1.788810	6.366035	-4.031850
C	-1.426080	5.660291	-1.359710
C	-1.221246	5.138741	-3.718342
C	-1.011117	4.734209	-2.367120
O	-0.486048	3.568863	-2.083392
C	3.329509	-3.765176	7.417612
C	1.808126	-3.694728	7.601319
C	1.093156	-3.548503	6.243378
O	1.454182	-2.509555	5.563841
O	0.285352	-4.416844	5.878990
C	3.583449	0.056021	7.405812
C	2.152590	0.599292	7.626216
O	1.947426	1.567566	8.363983
C	4.652496	1.132486	7.622893
C	4.776380	2.171580	6.490777
C	5.595174	3.383037	6.959344
C	5.388452	1.570231	5.217251
N	1.167403	-0.083097	6.985828
C	-0.253120	0.217753	7.158913
C	-0.889847	0.921879	5.944493
C	-2.409587	1.021563	6.136326
C	-0.269564	2.301249	5.692716
C	3.602231	-4.239451	3.070906
C	2.476218	-3.613654	2.320280
C	2.157762	-3.651971	0.982405
N	1.404490	-3.016486	2.942614
C	0.507168	-2.718564	1.982277
N	0.919137	-3.090655	0.776724
C	4.146832	-7.892120	-0.457237
C	4.197892	-6.516893	-1.086978
C	3.221426	-6.118001	-2.011143
C	5.214353	-5.611675	-0.754950
C	3.239867	-4.839022	-2.570149
C	5.244637	-4.333311	-1.316177
C	4.252864	-3.943147	-2.217273
O	-0.020691	-2.991984	-1.862452
O	-0.440602	3.046738	0.335447
H	-3.366787	-2.692533	-3.381662
H	-2.717396	-4.074921	-4.311307
H	-1.856783	1.249923	-4.912843
H	-0.670293	1.264538	-3.608533
H	-1.128441	1.930311	-7.257496
H	1.384139	2.487090	-3.826914
H	0.309639	3.460401	-8.570777
H	2.860730	3.978160	-5.146213
H	2.328521	4.475973	-7.525592
H	-0.618705	-0.549058	-6.093974
H	3.325671	-0.903173	-8.554913
H	3.563886	0.456207	-7.443769
H	3.853498	-2.522944	-6.778148
H	5.052970	-1.254349	-6.482825
H	3.290506	-2.015831	-4.491141
H	3.734432	-0.314505	-4.663847
H	1.197151	0.231417	-7.265304
H	-2.240736	-3.054691	-1.058175
H	-1.996432	-2.912844	0.666312
H	-4.313681	-2.403086	1.113060
H	-5.963636	0.779956	-4.041376
H	-4.351622	0.330891	-3.519204
H	-2.937655	2.416935	-2.402919
H	-8.104804	2.092900	-2.741294
H	-9.425107	4.086409	-2.099551
H	-5.826034	6.252770	-1.099952
H	-8.308557	6.140369	-1.277998
H	-6.747759	0.152150	-1.628271
H	-3.184235	-6.057645	5.746933
H	-6.129312	-2.506093	2.921208
H	-7.757184	-0.609539	2.794900
H	-8.268539	-1.809150	3.992610
H	-7.528194	-0.286987	4.519053
H	-5.265149	-0.240197	2.313947
H	-4.042676	-1.131596	3.218648
H	-4.989783	0.128554	4.022632
H	-5.734019	-1.629431	5.818756
H	3.209879	6.742436	-1.293179
H	3.839176	7.947930	2.789617
H	1.634929	4.994080	-0.546656
H	2.252368	6.185562	3.533587
H	0.542661	3.997195	1.344061
H	0.389394	11.170137	2.227378
H	-2.137276	11.066867	0.490597
H	-2.059355	11.643390	2.161758
H	-1.227333	12.533308	0.881054
H	-1.143726	8.745364	1.176320
H	0.401207	8.687250	1.995043
H	-0.665600	9.689366	4.073097
H	-2.240892	9.626180	3.270253
H	-1.362375	8.133064	3.607671
H	0.055398	10.153117	-0.649516
H	8.695275	0.380289	-4.792212
H	6.864470	1.978390	-4.204189
H	6.393023	0.324717	-3.808987
H	6.907700	1.425858	-2.524125
H	9.425178	2.057603	-2.345496
H	10.581616	1.312193	-3.438606
H	9.656073	2.705861	-5.350766
H	8.576710	3.518218	-4.209496
H	10.323407	3.690057	-4.040521
H	8.684419	-0.388061	-1.822837
H	6.163094	6.114497	0.904823
H	7.905307	6.458460	0.872139
H	9.562110	4.581466	1.163496
H	5.345197	3.792401	0.963805
H	10.031724	2.169453	0.868852
H	5.801817	1.391253	0.670190
H	8.152226	0.552797	0.632817
H	-1.932583	6.630944	-5.078344
H	-2.294209	7.569337	-0.898973
H	-0.923846	4.453521	-4.503906
H	-1.276854	5.387869	-0.318826
H	-0.445397	3.268312	-0.704926
H	1.429615	-4.588330	8.106879
H	1.560443	-2.823465	8.221876
H	3.612988	-4.661396	6.852372
H	4.400742	1.650771	8.554148
H	5.630132	0.650837	7.770169
H	3.764061	2.527661	6.256459
H	5.683855	4.135086	6.167329
H	5.131280	3.860920	7.829004
H	6.612051	3.081604	7.244835
H	5.412806	2.299434	4.400797
H	4.824674	0.701588	4.863661
H	6.420083	1.242176	5.401506
H	3.727246	-0.749869	8.137220
H	-0.695394	0.287413	5.067582
H	-2.889064	1.480118	5.265118
H	-2.654245	1.637750	7.010916
H	-2.862851	0.034693	6.289753
H	-0.681884	2.767720	4.791507
H	-0.456564	2.972072	6.539576
H	0.813658	2.231445	5.564677
H	-0.350262	0.847369	8.049389
H	4.458654	-4.352400	2.396492
H	3.919451	-3.602456	3.903856
H	2.744725	-4.046055	0.166077
H	-0.408214	-2.186339	2.185842
H	3.875888	-8.635606	-1.217149
H	5.147213	-8.175356	-0.099540
H	5.992620	-5.911540	-0.055380
H	2.427012	-6.794911	-2.315096
H	6.036542	-3.641195	-1.042211
H	2.449649	-4.573924	-3.265795
H	4.261906	-2.939488	-2.631527
H	-10.765364	-0.386752	-0.474718
H	-10.686585	-0.935934	1.205019
H	-9.214317	1.545022	0.119048
H	-9.260574	1.050572	1.799692
H	-11.666160	1.961570	0.155068
H	-12.874048	2.085355	2.348018
H	-12.390042	0.425149	1.981185
H	-11.472045	1.372746	3.159708
H	-11.536147	4.062573	1.492789
H	-10.025489	3.803411	0.597753
H	-10.099246	3.457313	2.328920
H	0.317367	-2.916207	-0.938613
H	-6.580325	-3.096220	5.295158
H	-3.042519	-5.581145	4.057611
H	-2.342498	-4.552245	5.314421
H	3.856686	-3.803642	8.379072
H	9.824606	-0.988380	-3.037524
H	-4.080496	-3.139424	-4.956450
H	-6.425157	-1.119723	-2.794717
H	-4.209376	-3.838374	0.120199
H	-2.632713	8.217548	-3.283472
H	0.898043	11.637101	-0.173153
H	7.101901	6.058840	2.391900
H	-0.779228	-0.726931	7.345455
H	4.330661	8.248681	0.354192
H	1.318789	-2.807453	3.975688
H	0.492385	-2.355458	-2.386366
H	1.534809	10.049494	0.305836
H	1.395304	-0.921143	6.428935
H	-1.505505	-1.317325	-3.388193
H	-3.670741	-2.703202	4.970866
H	-4.046254	-0.557782	-1.332908
H	-9.227038	-0.914263	0.213366
H	-3.500697	4.700363	-1.630673
C	-0.446611	0.635701	0.158178
C	-1.209997	1.899266	0.590977
H	-1.440441	1.845505	1.662715
H	-0.347132	0.643292	-0.927249
C	0.915708	0.491413	0.792695
C	2.003122	0.107358	0.000403
C	1.122077	0.738053	2.155567
C	3.270017	-0.040203	0.566233
H	1.853113	-0.089744	-1.057701
C	2.386058	0.592011	2.721657
H	0.293788	1.048637	2.784035
C	3.464548	0.199099	1.927152
H	4.101328	-0.359330	-0.057159
H	2.523448	0.777236	3.782501
H	4.449477	0.077872	2.369604
H	-2.168167	1.926697	0.052824
H	3.682707	-2.894499	6.862330
H	3.655761	-0.416844	6.420996
H	8.107184	-1.410071	-3.145759
H	1.246686	-1.531801	-7.471680
C	3.144654	-8.048562	0.702600
H	2.143495	-7.736024	0.400289
H	3.083129	-9.111200	0.980315
H	-5.033751	-6.368208	0.497634
H	-5.180391	-5.383891	-0.969044
H	-6.022227	-6.926238	-0.854743
H	-3.968378	-8.222855	-0.933159
H	-3.936612	-7.115428	-2.292058
H	-2.286601	-6.881968	1.435376
H	0.046982	-5.957473	0.992765
H	0.360425	-5.380866	-1.517937
H	-1.656313	-6.142116	-2.730830
H	0.578297	-5.008315	-8.796120
H	-0.012345	-3.458234	-8.184853
H	1.732528	-3.727653	-8.405944
H	1.707512	-5.419708	-6.533553
H	1.095328	-3.881952	-5.971523
H	-0.619960	-6.291338	-6.776898
H	-1.273389	-4.719701	-6.364441
H	2.431552	-5.489561	4.413284
H	4.075624	-6.103869	4.117075
H	4.487988	-7.145019	2.079136