313			
			
C	2.067167	-6.761275	2.508353
C	1.361984	-7.259617	1.257098
O	0.176574	-7.020576	1.018713
N	2.145624	-7.968466	0.395192
C	0.125681	-2.398051	-8.577458
C	0.078600	-3.256743	-7.301213
C	-1.318008	-3.814172	-7.003328
C	-1.452907	-4.550446	-5.650212
O	-0.432819	-4.994833	-5.083946
O	-2.661336	-4.650633	-5.219447
C	-6.170967	-5.285791	-1.669819
C	-5.092400	-6.126437	-2.390716
C	-3.676668	-5.895305	-1.930036
C	-3.063996	-6.164497	-0.732440
N	-2.702227	-5.340626	-2.745942
C	-1.554696	-5.257619	-2.078025
N	-1.747075	-5.756741	-0.848583
C	-3.667244	-1.530460	-4.651151
C	-2.524658	-0.674278	-5.183373
O	-2.356699	-0.533641	-6.400332
N	-1.692979	-0.087831	-4.262142
C	-0.609530	0.775001	-4.719214
C	0.765643	0.171458	-4.405226
O	1.035662	-0.219081	-3.260748
C	-0.710326	2.194067	-4.090342
C	0.196564	3.197203	-4.769813
C	-0.265129	3.949083	-5.860734
C	1.527667	3.371321	-4.361112
C	0.574575	4.842273	-6.528979
C	2.371823	4.259327	-5.029702
C	1.899857	4.997526	-6.117634
N	1.695556	0.104424	-5.390680
C	1.607744	0.609073	-6.777712
C	3.068647	0.587029	-7.250085
C	3.676431	-0.592591	-6.474715
C	3.011002	-0.486461	-5.097143
C	-4.610718	-2.088429	-0.192185
C	-5.625434	-1.049260	-0.697700
O	-6.832340	-1.203036	-0.472666
C	-3.169021	-2.043425	-0.731620
C	-2.447913	-0.728001	-0.362656
O	-2.199541	-0.548255	0.850854
O	-2.223996	0.105327	-1.313895
N	-5.148917	0.029972	-1.375699
C	-6.046821	1.063906	-1.877681
C	-5.335407	2.024464	-2.849500
C	-4.740998	3.235341	-2.190323
C	-3.541702	3.327419	-1.524519
C	-5.375012	4.523738	-2.073160
C	-4.491963	5.360810	-1.332125
C	-6.598700	5.057033	-2.515481
N	-3.393788	4.600326	-1.004191
C	-4.797073	6.695957	-1.045403
C	-6.908898	6.381265	-2.225780
C	-6.013999	7.193668	-1.498780
C	-10.256030	1.075676	0.760660
C	-9.605992	2.461664	0.840380
C	-10.585421	3.645911	0.956454
C	-11.441233	3.578032	2.230380
C	-9.830044	4.981271	0.884653
C	-4.212570	-5.679319	4.093667
C	-5.462978	-4.856554	4.359681
O	-6.584325	-5.361539	4.393801
N	-5.249733	-3.515799	4.527940
C	-6.340804	-2.571341	4.718669
C	-6.621507	-1.652968	3.512087
C	-7.954933	-0.920873	3.719500
C	-5.489148	-0.648500	3.261944
C	4.578040	6.441258	2.535496
C	4.133821	5.843850	1.354359
C	3.927843	6.151151	3.738636
C	3.056025	4.960901	1.365375
C	2.850526	5.269751	3.765916
C	2.412357	4.667080	2.577654
O	1.360888	3.815210	2.656900
C	2.084495	10.062782	2.772429
C	1.116575	10.072968	3.964602
C	0.343220	8.741932	4.040215
C	0.186175	11.293399	3.894871
C	-0.543890	8.574230	5.278405
C	8.499064	-1.339941	-2.839831
C	8.310960	-0.027673	-3.615563
C	9.647547	0.734678	-3.713654
C	7.198389	0.819824	-2.980604
C	9.621750	1.971497	-4.618241
C	7.756286	4.172674	2.724824
C	8.512909	2.981098	2.186629
C	9.417299	3.119126	1.125131
C	8.309176	1.699388	2.718306
C	10.092365	2.014027	0.604183
C	8.979481	0.590507	2.199691
C	9.874964	0.743161	1.139368
C	-1.144982	7.962123	-1.044669
C	-0.992225	7.164053	0.091226
C	-0.676783	7.487442	-2.273807
C	-0.393425	5.901364	0.009391
C	-0.078552	6.236045	-2.374301
C	0.059425	5.428613	-1.233499
O	0.650336	4.219379	-1.397791
C	2.406867	-5.829135	6.592054
C	0.909461	-6.060756	6.383786
C	0.176327	-4.906792	5.659801
O	0.946610	-4.013757	5.136245
O	-1.063656	-4.926920	5.628845
C	3.247054	-2.187567	7.428255
C	1.913108	-1.495878	7.778455
O	1.866005	-0.646743	8.675183
C	4.376092	-1.165157	7.236331
C	4.233014	-0.262357	5.995449
C	5.317741	0.825396	6.002098
C	4.267455	-1.054914	4.680537
N	0.839586	-1.888858	7.050829
C	-0.513378	-1.384290	7.285877
C	-1.351467	-1.328348	5.999411
C	-2.785749	-0.910021	6.350909
C	-0.742372	-0.386526	4.952169
C	2.668915	-5.334283	2.307963
C	1.721261	-4.323264	1.743183
C	1.522456	-3.918954	0.443113
N	0.789416	-3.629517	2.489279
C	0.081340	-2.854025	1.632251
N	0.497437	-3.004466	0.382325
C	2.726255	-8.174002	-2.016811
C	3.025926	-6.729740	-2.346360
C	2.128624	-5.968428	-3.108665
C	4.221838	-6.135596	-1.923887
C	2.404872	-4.638401	-3.425912
C	4.513010	-4.809983	-2.251200
C	3.602983	-4.060484	-2.997889
O	-0.021175	-2.744168	-2.310500
O	0.824348	2.270073	0.483333
H	-3.911351	-1.314753	-3.610115
H	-3.391839	-2.587232	-4.760805
H	-1.752733	2.513639	-4.180077
H	-0.482538	2.128353	-3.022906
H	-1.296382	3.831879	-6.184633
H	1.891956	2.822183	-3.499312
H	0.192136	5.417591	-7.368224
H	3.396756	4.383858	-4.690412
H	2.555999	5.693601	-6.633644
H	-0.752543	0.851023	-5.798307
H	3.147820	0.482344	-8.336149
H	3.561455	1.522822	-6.962452
H	3.397568	-1.538992	-6.951132
H	4.767975	-0.554580	-6.413295
H	2.879743	-1.447839	-4.596723
H	3.572705	0.164824	-4.414615
H	1.181975	1.613377	-6.803553
H	-3.139948	-2.204566	-1.810978
H	-2.611607	-2.861822	-0.266538
H	-4.572922	-1.963196	0.895516
H	-6.065702	2.358007	-3.596256
H	-4.571642	1.468004	-3.404838
H	-2.802689	2.553354	-1.347390
H	-7.295734	4.441068	-3.078242
H	-7.852552	6.800149	-2.566095
H	-4.101993	7.319850	-0.492318
H	-6.279871	8.226426	-1.288346
H	-6.486389	1.631545	-1.046292
H	-4.411536	-6.711018	4.387780
H	-6.720419	-2.289431	2.623387
H	-8.187426	-0.292669	2.854388
H	-8.782656	-1.626225	3.856034
H	-7.916848	-0.272456	4.605134
H	-5.703236	-0.035347	2.381467
H	-4.524269	-1.132884	3.080253
H	-5.370514	0.026851	4.119575
H	-6.134102	-1.955360	5.605826
H	4.623742	6.069537	0.411028
H	4.267723	6.607969	4.664578
H	2.701638	4.510842	0.443091
H	2.342352	5.019738	4.691565
H	1.266298	3.309377	1.819819
H	1.715041	10.160032	4.885383
H	-0.454637	11.242709	3.005532
H	-0.466169	11.365731	4.770795
H	0.762060	12.224153	3.833895
H	-0.267806	8.637128	3.132222
H	1.066787	7.918282	4.008360
H	0.039227	8.686433	6.200618
H	-1.356176	9.308217	5.309103
H	-1.001074	7.579977	5.297691
H	1.536256	9.970984	1.826996
H	8.001407	-0.285526	-4.640731
H	6.981197	1.719206	-3.565405
H	6.267216	0.251444	-2.892293
H	7.477834	1.137120	-1.968985
H	9.958777	1.028178	-2.700628
H	10.418881	0.043217	-4.080696
H	9.301993	1.711048	-5.634266
H	8.935840	2.737011	-4.242885
H	10.615089	2.428190	-4.690961
H	8.803121	-1.138414	-1.805237
H	6.785750	4.289970	2.228922
H	8.313933	5.102044	2.571837
H	9.591951	4.105168	0.700736
H	7.615915	1.568124	3.545510
H	10.791194	2.146874	-0.217642
H	8.801846	-0.392264	2.627230
H	10.400147	-0.118532	0.736970
H	-0.790059	8.094104	-3.168335
H	-1.340938	7.518224	1.057787
H	0.274195	5.852628	-3.324944
H	-0.255504	5.296986	0.902386
H	0.507674	3.610436	-0.640659
H	0.739548	-6.970514	5.790519
H	0.396720	-6.236220	7.336932
H	2.902709	-5.607425	5.644804
H	4.403257	-0.536060	8.133574
H	5.339039	-1.694691	7.181182
H	3.259015	0.241555	6.064123
H	5.198347	1.509954	5.154477
H	5.281864	1.420389	6.921738
H	6.319761	0.379504	5.934310
H	4.195599	-0.390106	3.813553
H	3.443423	-1.770232	4.608102
H	5.207506	-1.616122	4.589419
H	3.495046	-2.833200	8.280564
H	-1.379723	-2.345324	5.585079
H	-3.409356	-0.854853	5.453072
H	-2.804580	0.082894	6.819516
H	-3.252260	-1.617503	7.046372
H	-1.340745	-0.377213	4.034563
H	-0.692824	0.642787	5.331047
H	0.273511	-0.695431	4.689278
H	-0.418208	-0.390566	7.737693
H	3.528209	-5.407693	1.631437
H	3.044482	-4.997854	3.280038
H	2.056583	-4.224801	-0.445478
H	-0.727901	-2.198567	1.927537
H	2.353526	-8.683007	-2.915019
H	3.659360	-8.690188	-1.747254
H	4.937859	-6.719329	-1.347872
H	1.200376	-6.396674	-3.478714
H	5.448718	-4.365524	-1.920858
H	1.667661	-4.081431	-3.992840
H	3.825857	-3.025894	-3.241232
H	-10.997251	1.032368	-0.047349
H	-10.762943	0.802200	1.692066
H	-8.986871	2.612755	-0.052884
H	-8.911149	2.490403	1.691678
H	-11.267099	3.596302	0.092322
H	-12.127330	4.431273	2.290995
H	-12.042873	2.664816	2.272944
H	-10.806397	3.599594	3.125142
H	-10.520123	5.833257	0.910133
H	-9.229797	5.058794	-0.027921
H	-9.144258	5.085860	1.734347
H	0.053746	-2.656427	-1.332320
H	-7.220777	-3.183439	4.931504
H	-4.000819	-5.668283	3.017702
H	-3.319203	-5.314597	4.612216
H	2.887870	-6.709314	7.040140
H	9.268538	-1.971660	-3.298748
H	-4.540983	-1.345018	-5.280686
H	-6.881520	0.558831	-2.378049
H	-5.068599	-3.063454	-0.369495
H	-1.615377	8.937907	-0.971990
H	2.672554	10.987180	2.727391
H	7.555031	4.068664	3.795185
H	-1.026313	-2.023523	8.020430
H	5.419466	7.128082	2.519614
H	0.693818	-3.686718	3.530059
H	0.110897	-1.849542	-2.656852
H	2.779952	9.219040	2.829479
H	0.947299	-2.622174	6.339720
H	-1.866498	-0.179600	-3.252035
H	-4.298943	-3.176796	4.513421
H	-4.140367	0.166380	-1.477995
H	-9.499101	0.311705	0.555461
H	-2.562175	4.949236	-0.549970
C	1.176262	0.927815	-0.009125
C	0.270229	1.074898	1.138044
H	0.678317	0.924354	2.135741
H	0.698616	0.698000	-0.959782
C	2.601233	0.506373	0.108824
C	3.509293	1.172572	0.940414
C	3.032242	-0.605436	-0.628415
C	4.832944	0.742239	1.029409
H	3.181851	2.031775	1.514036
C	4.351685	-1.045137	-0.518154
H	2.333129	-1.126430	-1.273665
C	5.258210	-0.370539	0.301900
H	5.533961	1.277939	1.662794
H	4.664815	-1.925533	-1.071504
H	6.288757	-0.706686	0.378051
H	-0.794528	0.887070	0.995718
H	2.584591	-4.979873	7.255555
H	3.130285	-2.835442	6.555903
H	7.568803	-1.916185	-2.802785
H	0.979337	-0.051466	-7.383538
C	1.690289	-8.428103	-0.904936
H	0.754578	-7.905952	-1.113870
H	1.463386	-9.503656	-0.869837
H	-6.132769	-5.429964	-0.586189
H	-6.051385	-4.220037	-1.873782
H	-7.166735	-5.583805	-2.013898
H	-5.331026	-7.190480	-2.265854
H	-5.130548	-5.927202	-3.466719
H	-3.443027	-6.601571	0.177122
H	-1.024322	-5.877920	-0.136819
H	-0.661071	-4.783658	-2.463404
H	-2.744966	-5.080021	-3.762189
H	-0.191746	-2.972264	-9.457977
H	-0.549857	-1.541039	-8.482212
H	1.137431	-2.024181	-8.779993
H	0.796270	-4.083206	-7.362805
H	0.399364	-2.647561	-6.447795
H	-1.618020	-4.519682	-7.793830
H	-2.053623	-3.004259	-7.023332
H	1.319509	-6.723407	3.303578
H	2.861271	-7.452811	2.816306
H	3.116293	-8.103280	0.635790