290			
			
C	3.431623	7.557805	-0.348004
C	4.336206	6.943523	0.732152
O	4.439142	7.459019	1.842428
N	5.049159	5.845042	0.372229
C	6.058368	5.295984	1.253226
C	6.328345	3.806241	0.980599
C	7.565861	3.347802	1.763715
C	5.111740	2.931595	1.312218
C	2.766256	-0.135574	-6.209012
C	1.603388	-1.129174	-6.191271
O	1.088646	-1.536566	-7.231475
N	1.181355	-1.539410	-4.956856
C	0.104787	-2.508290	-4.810369
C	-1.271294	-1.807151	-4.787568
O	-1.454896	-0.777541	-4.105433
C	0.314315	-3.359153	-3.529416
C	-0.692344	-4.479604	-3.377919
C	-0.557100	-5.669415	-4.108998
C	-1.779115	-4.352062	-2.503310
C	-1.495925	-6.695841	-3.989386
C	-2.721488	-5.374583	-2.384599
C	-2.587759	-6.546213	-3.131818
N	-2.293592	-2.337396	-5.487187
C	-2.283309	-3.511538	-6.382542
C	-3.769885	-3.851669	-6.532007
C	-4.451798	-2.476644	-6.474744
C	-3.626712	-1.709684	-5.431088
C	3.999657	2.472521	-2.636844
C	5.109360	1.422608	-2.822375
O	6.274784	1.809339	-2.912039
C	2.488639	2.112443	-2.696536
C	1.934404	0.886752	-1.965275
O	1.310073	1.134732	-0.818408
O	1.994552	-0.243838	-2.447951
N	4.759238	0.114712	-2.838762
C	5.749643	-0.943785	-2.963790
C	5.114572	-2.347289	-3.059945
C	4.992834	-3.078748	-1.755267
C	3.853453	-3.358524	-1.035930
C	6.087291	-3.666653	-1.022581
N	4.173052	-4.072055	0.097947
C	5.528695	-4.287067	0.132666
C	7.475805	-3.751105	-1.230736
C	6.315867	-4.974693	1.063362
C	8.260098	-4.435563	-0.308305
C	7.684526	-5.040217	0.829166
C	10.125407	0.653906	-1.237958
C	9.886904	-0.208466	0.006028
C	11.158596	-0.795398	0.649571
C	12.109773	0.292039	1.171673
C	10.788945	-1.777433	1.770960
C	2.629656	6.590279	-1.223115
O	1.777400	5.748505	-0.482149
C	-4.516272	-5.864166	5.007380
C	-3.576852	-4.733304	4.630062
C	-2.918304	-4.696990	3.392213
C	-3.306658	-3.685298	5.524213
C	-2.017871	-3.682604	3.055417
C	-2.414857	-2.662498	5.208554
C	-1.743549	-2.653050	3.973128
O	-0.866915	-1.651474	3.748704
C	-0.464446	-7.604294	6.296031
C	0.587392	-6.556118	6.690625
C	0.399044	-5.273616	5.857513
C	2.001729	-7.142466	6.568376
C	1.294974	-4.094355	6.250913
C	-9.020556	-0.674275	-2.728051
C	-8.577350	-2.141803	-2.631512
C	-9.414302	-2.888794	-1.573662
C	-7.069125	-2.233040	-2.354428
C	-9.172294	-4.400592	-1.508238
C	-6.955605	-2.962800	4.511056
C	-7.130433	-1.950517	3.404504
C	-8.379777	-1.371376	3.143511
C	-6.043533	-1.579078	2.600886
C	-8.543853	-0.447300	2.110497
C	-6.202417	-0.656842	1.565630
C	-7.453022	-0.085460	1.317603
C	2.578766	-8.510738	1.950013
C	2.019451	-7.205333	1.436990
C	2.027665	-6.040288	2.211453
C	1.452592	-7.108279	0.155608
C	1.502687	-4.830943	1.743638
C	0.928508	-5.919313	-0.332372
C	0.931769	-4.726186	0.443103
O	0.452779	-3.598608	-0.040623
C	-2.887752	8.175126	2.776946
C	-1.363738	8.197932	2.588113
C	-0.840659	7.122661	1.628977
O	-1.301100	5.932166	1.816660
O	-0.012984	7.439167	0.747733
C	-3.082250	5.245711	5.235986
C	-1.621668	4.911010	5.608203
O	-1.312967	4.628078	6.767130
C	-4.087141	4.515469	6.134813
C	-4.248034	3.009584	5.847276
C	-4.979445	2.314841	7.004626
C	-4.976002	2.747991	4.520167
N	-0.701765	4.987242	4.608121
C	0.729846	4.837642	4.907681
C	1.644730	5.214133	3.740979
C	3.078922	5.395673	4.257920
C	1.584213	4.176755	2.610768
C	-3.284847	5.725844	-0.872874
C	-2.182891	4.800511	-1.217975
N	-1.145747	4.572260	-0.338850
C	-1.942992	4.044464	-2.327996
C	-0.301769	3.709401	-0.887033
N	-0.759702	3.370788	-2.099435
C	-3.238099	7.149180	-5.115941
C	-4.316094	6.318590	-5.838508
C	-4.266032	4.848687	-5.479087
C	-3.365863	3.982901	-6.117182
C	-5.087547	4.324068	-4.471226
C	-3.271698	2.641443	-5.740476
C	-4.994645	2.984468	-4.088380
C	-4.075820	2.139876	-4.712892
O	-0.197153	1.593959	-4.177905
H	3.283564	-0.050796	-5.251430
H	2.381366	0.849501	-6.491844
H	1.326587	-3.773414	-3.588283
H	0.285434	-2.722275	-2.641640
H	0.300576	-5.797804	-4.766127
H	-1.854474	-3.468007	-1.879032
H	-1.368423	-7.614155	-4.556143
H	-3.549293	-5.263066	-1.690176
H	-3.315034	-7.346682	-3.029109
H	0.159611	-3.150695	-5.691041
H	-3.976223	-4.401442	-7.454150
H	-4.087531	-4.471951	-5.687100
H	-4.379778	-1.980429	-7.449195
H	-5.509599	-2.528612	-6.204492
H	-3.550032	-0.642449	-5.649492
H	-4.035885	-1.813053	-4.419051
H	-1.718158	-4.333912	-5.946332
H	2.189356	1.946562	-3.733699
H	1.953716	2.997418	-2.346585
H	4.216047	2.937120	-1.668124
H	5.743529	-2.940243	-3.736899
H	4.137396	-2.278507	-3.553920
H	2.818005	-3.113785	-1.231597
H	7.933163	-3.296114	-2.105955
H	9.332275	-4.513516	-0.466978
H	5.867200	-5.445280	1.933174
H	8.321914	-5.569372	1.532061
H	6.443314	-0.903146	-2.116193
H	9.219180	-1.038477	-0.258167
H	9.348600	0.380942	0.762556
H	11.691301	-1.361194	-0.131037
H	13.002428	-0.151245	1.627839
H	12.444386	0.963891	0.375117
H	11.615811	0.903231	1.937526
H	11.680722	-2.246191	2.202987
H	10.130764	-2.570296	1.401249
H	10.260419	-1.261502	2.582127
H	10.694002	1.561178	-1.008106
H	1.100029	6.315701	-0.032231
H	-5.032687	-6.265544	4.128638
H	-5.277759	-5.531166	5.719804
H	-3.101289	-5.487893	2.667621
H	-3.800522	-3.671442	6.494407
H	-1.518468	-3.691571	2.090140
H	-2.211476	-1.860820	5.911699
H	-0.391378	-1.723717	2.880261
H	0.423522	-6.295229	7.748540
H	2.106454	-8.052232	7.171434
H	2.221845	-7.408421	5.527040
H	2.768482	-6.435854	6.900614
H	0.551896	-5.512614	4.796950
H	-0.646885	-4.956072	5.939579
H	1.175240	-3.840587	7.311816
H	2.356780	-4.302519	6.079456
H	1.034380	-3.206405	5.666649
H	-8.773319	-2.616553	-3.606116
H	-6.709777	-3.266316	-2.369596
H	-6.498818	-1.675611	-3.107002
H	-6.827736	-1.811537	-1.371714
H	-9.218778	-2.443965	-0.588340
H	-10.477583	-2.709369	-1.784460
H	-9.340478	-4.872934	-2.483743
H	-8.151055	-4.638228	-1.195494
H	-9.849873	-4.874241	-0.790211
H	-8.854564	-0.155055	-1.776579
H	-5.950353	-2.914611	4.936010
H	-7.096228	-3.984701	4.136560
H	-9.231922	-1.642770	3.762805
H	-5.064294	-2.010255	2.792414
H	-9.519567	-0.002507	1.932902
H	-5.341866	-0.376154	0.966547
H	-7.573203	0.645770	0.522636
H	1.796824	-9.269303	2.092691
H	3.076662	-8.375986	2.916107
H	2.457912	-6.070027	3.211578
H	1.428822	-7.992630	-0.480892
H	1.519752	-3.946800	2.374450
H	0.502932	-5.879499	-1.329128
H	0.543463	-2.544121	0.819091
H	-1.018933	9.171323	2.229033
H	-0.878545	8.020098	3.557234
H	-3.404235	8.415292	1.840158
H	-3.744655	4.646266	7.166376
H	-5.069983	5.001237	6.052647
H	-3.240791	2.574946	5.784287
H	-5.027787	1.677378	4.295765
H	-4.478882	3.238925	3.676903
H	-6.004883	3.128350	4.562158
H	-5.091641	1.241225	6.817751
H	-4.434870	2.439252	7.946446
H	-5.985002	2.734324	7.140433
H	-3.196928	6.328889	5.373028
H	1.313345	6.181155	3.339691
H	2.115656	4.531003	1.723338
H	2.035297	3.230755	2.936563
H	0.550313	3.969862	2.319358
H	3.731728	5.777252	3.470093
H	3.484874	4.445756	4.629245
H	3.112147	6.115876	5.083088
H	0.929217	3.802534	5.219508
H	-4.071741	5.682293	-1.629801
H	-3.719688	5.471481	0.098220
H	-2.508990	3.916769	-3.233919
H	-0.391537	2.657401	-2.747470
H	0.597534	3.339961	-0.430932
H	-4.191206	6.434256	-6.922146
H	-5.306678	6.719879	-5.594814
H	-2.734817	4.364514	-6.916465
H	-5.804716	4.976003	-3.978000
H	-2.583925	1.979638	-6.262476
H	-5.631861	2.603186	-3.295923
H	-3.970337	1.108756	-4.393570
H	-2.234029	6.789797	-5.362011
H	-0.529508	0.668232	-4.079096
H	-0.772212	1.976520	-4.852979
H	3.481698	-4.445757	0.742186
H	3.790944	-0.163224	-2.745130
H	1.539163	-1.086813	-4.121078
H	-1.082889	5.097896	0.633578
H	-0.985644	5.270599	3.669633
H	-2.926970	6.759025	-0.803550
H	-3.353522	7.086099	-4.029680
H	-3.300612	8.203686	-5.403444
H	-0.374385	-8.513764	6.901968
H	-1.479556	-7.212075	6.421997
H	-0.350122	-7.891006	5.243831
H	-3.979507	-6.701424	5.473232
H	3.315197	-8.942499	1.260197
H	9.176678	0.966336	-1.687023
H	10.685090	0.097987	-2.000395
H	-3.201520	8.910772	3.525254
H	0.953096	5.460343	5.782439
H	-7.683678	-2.806791	5.313631
H	-8.460536	-0.137420	-3.502132
H	-10.086603	-0.593066	-2.968866
H	3.471343	-0.450514	-6.980971
H	-1.827991	-3.238440	-7.343440
H	6.350866	-0.737039	-3.857833
C	0.530869	0.009432	-0.185592
C	1.380816	-0.677439	0.895523
O	0.635358	-1.697198	1.495813
H	0.345099	-0.709661	-0.982513
H	1.694251	0.056682	1.649195
H	2.295801	-1.061331	0.419285
C	-0.778041	0.588865	0.293311
C	-0.916588	1.165391	1.562268
C	-1.889521	0.549596	-0.559012
C	-2.136391	1.705508	1.966630
H	-0.078047	1.182638	2.249187
C	-3.108428	1.097851	-0.158843
H	-1.798305	0.087637	-1.539614
C	-3.234242	1.678233	1.104956
H	-2.226266	2.145194	2.954665
H	-3.959671	1.068612	-0.833957
H	-4.185405	2.093394	1.424273
H	-3.222187	7.188251	3.098048
H	-3.255596	5.051977	4.171577
H	4.182181	3.244839	-3.389126
H	6.552636	3.689341	-0.091906
H	7.406483	3.455285	2.843531
H	7.785388	2.294471	1.563547
H	8.452385	3.932735	1.495237
H	4.896264	2.959357	2.386595
H	4.211507	3.275036	0.793887
H	5.292360	1.888355	1.033284
H	6.998455	5.860647	1.151298
H	5.717213	5.444717	2.280347
H	5.004208	5.510436	-0.578389
H	2.742302	8.219875	0.182848
H	4.061723	8.190951	-0.989971
H	2.069453	7.184609	-1.964319
H	3.298515	5.938165	-1.803578