290			
			
C	1.750561	8.158032	-0.412741
C	2.655565	7.790462	0.773938
O	2.590063	8.405959	1.837032
N	3.576511	6.816741	0.561209
C	4.619572	6.559337	1.534698
C	5.263234	5.175926	1.336503
C	6.539783	5.063446	2.180516
C	4.285767	4.038357	1.663017
C	3.213043	0.256166	-5.835277
C	2.340644	-1.011747	-5.873810
O	2.109735	-1.612487	-6.925619
N	1.843092	-1.403639	-4.665295
C	0.969190	-2.556632	-4.522761
C	-0.512701	-2.149780	-4.643182
O	-0.953871	-1.174326	-4.010874
C	1.226916	-3.229837	-3.149987
C	0.423655	-4.490512	-2.917105
C	0.915204	-5.739804	-3.324957
C	-0.833614	-4.443185	-2.296165
C	0.172841	-6.905766	-3.126443
C	-1.579487	-5.606263	-2.095885
C	-1.079254	-6.842332	-2.511607
N	-1.334653	-2.893141	-5.424495
C	-1.007388	-4.098303	-6.225001
C	-2.385407	-4.648694	-6.613862
C	-3.260000	-3.389344	-6.709687
C	-2.752503	-2.519275	-5.552952
C	3.550858	3.210246	-2.336261
C	4.882138	2.429041	-2.275228
O	5.931465	3.039334	-2.034535
C	2.301474	2.638137	-3.030160
C	1.622890	1.348336	-2.491834
O	1.234594	1.654745	-1.085856
O	2.291887	0.219202	-2.577306
N	4.817697	1.089366	-2.458695
C	5.980465	0.220797	-2.310311
C	5.676500	-1.219480	-2.810148
C	5.877670	-2.282682	-1.767958
C	4.897861	-2.904445	-1.034037
C	7.131006	-2.824163	-1.302424
N	5.460469	-3.807103	-0.149045
C	6.829513	-3.775806	-0.285068
C	8.476920	-2.600819	-1.641378
C	7.827701	-4.491137	0.385491
C	9.471433	-3.309447	-0.976523
C	9.148927	-4.245008	0.028610
C	9.759363	2.762286	-0.325574
C	9.681902	1.497847	0.537231
C	11.007212	1.062738	1.192939
C	11.544550	2.108688	2.181281
C	10.845937	-0.299936	1.882975
C	1.204223	7.003855	-1.255858
O	0.446550	6.094913	-0.496565
C	-3.775012	-6.385382	5.060424
C	-2.972231	-5.355801	4.296467
C	-2.353844	-5.676121	3.081268
C	-2.801295	-4.051465	4.782539
C	-1.591702	-4.745289	2.377711
C	-2.045859	-3.104115	4.092106
C	-1.428830	-3.448527	2.883565
O	-0.697926	-2.495110	2.244698
C	0.406467	-7.191561	6.784145
C	1.260154	-6.018546	7.287829
C	1.204393	-4.842167	6.293404
C	2.696583	-6.481850	7.572798
C	1.864340	-3.549287	6.784557
C	-8.492713	-2.570655	-3.321202
C	-7.841035	-3.923749	-3.000353
C	-8.715495	-4.722527	-2.013155
C	-6.408305	-3.723568	-2.483284
C	-8.252492	-6.160939	-1.757730
C	-6.694801	-4.076609	4.189163
C	-7.140800	-3.138176	3.091921
C	-8.497222	-3.005877	2.765573
C	-6.205416	-2.393409	2.360039
C	-8.911487	-2.158135	1.737395
C	-6.615494	-1.542650	1.331905
C	-7.970365	-1.420876	1.016310
C	3.964328	-7.627491	2.768893
C	3.310928	-6.418314	2.146472
C	3.506391	-5.132064	2.665696
C	2.458273	-6.551545	1.041617
C	2.870505	-4.014952	2.116074
C	1.817349	-5.453384	0.477490
C	2.018511	-4.177066	1.016881
O	1.358716	-3.126890	0.438358
C	-4.827317	7.580627	2.132650
C	-3.349651	7.987876	2.108183
C	-2.487141	7.036989	1.271282
O	-2.663160	5.782284	1.495970
O	-1.684779	7.516081	0.440824
C	-4.653154	4.779898	4.738749
C	-3.190997	4.734331	5.236596
O	-2.936472	4.514873	6.423596
C	-5.589775	3.939935	5.613452
C	-5.427599	2.413448	5.478602
C	-6.197809	1.694235	6.595420
C	-5.873055	1.897766	4.102056
N	-2.219624	4.988205	4.318541
C	-0.823937	5.158343	4.753970
C	0.092928	5.752352	3.682149
C	1.370324	6.296848	4.337973
C	0.420215	4.726334	2.590330
C	-4.374931	4.952044	-1.383563
C	-3.092454	4.220156	-1.526674
N	-2.083732	4.350396	-0.594031
C	-2.626101	3.379570	-2.497772
C	-1.040226	3.624594	-0.984633
N	-1.343621	3.022117	-2.135475
C	-4.220119	6.175670	-5.685940
C	-5.034497	5.110055	-6.444429
C	-4.833911	3.704875	-5.914192
C	-3.657890	2.992076	-6.193929
C	-5.802270	3.092634	-5.107170
C	-3.447878	1.715294	-5.670662
C	-5.602218	1.811871	-4.586820
C	-4.421300	1.121675	-4.862135
O	0.377222	1.288535	-3.255092
H	3.659545	0.437863	-4.858764
H	2.585749	1.115262	-6.095575
H	2.297140	-3.454372	-3.103330
H	1.019098	-2.501911	-2.361304
H	1.895365	-5.797496	-3.792382
H	-1.223534	-3.485816	-1.962618
H	0.576211	-7.863124	-3.445099
H	-2.548495	-5.546529	-1.607902
H	-1.656680	-7.748374	-2.350832
H	1.224354	-3.248032	-5.329458
H	-2.350269	-5.226559	-7.541473
H	-2.756220	-5.306418	-5.819778
H	-3.085675	-2.881122	-7.664840
H	-4.330226	-3.599341	-6.633007
H	-2.843588	-1.447519	-5.741567
H	-3.281599	-2.735050	-4.614935
H	-0.429401	-4.813213	-5.637056
H	2.513837	2.435449	-4.083461
H	1.544506	3.430123	-3.018589
H	3.298684	3.442782	-1.293771
H	6.302509	-1.439233	-3.683524
H	4.642964	-1.266211	-3.165692
H	3.826152	-2.766435	-1.067064
H	8.736650	-1.881682	-2.413659
H	10.513862	-3.144259	-1.234117
H	7.579053	-5.211754	1.159863
H	9.946805	-4.783097	0.532814
H	6.299100	0.188985	-1.259591
H	9.314395	0.668888	-0.081254
H	8.927322	1.639062	1.324788
H	11.751296	0.947157	0.388999
H	12.484758	1.775685	2.635937
H	11.733854	3.072053	1.698106
H	10.826324	2.279304	2.993195
H	11.792691	-0.643968	2.315756
H	10.494583	-1.065467	1.182966
H	10.113526	-0.238277	2.697574
H	10.008917	3.649987	0.265077
H	-0.349647	6.575416	-0.150287
H	-4.374114	-7.008026	4.387174
H	-4.457052	-5.911625	5.772647
H	-2.468361	-6.677043	2.670976
H	-3.266843	-3.767128	5.723661
H	-1.120182	-5.022624	1.438791
H	-1.923097	-2.095747	4.473662
H	-0.258862	-2.865928	1.455581
H	0.825232	-5.670586	8.237981
H	2.708613	-7.318400	8.280772
H	3.184730	-6.821600	6.650452
H	3.310297	-5.681910	7.998095
H	1.666912	-5.152711	5.346069
H	0.153117	-4.634307	6.058051
H	1.425216	-3.214537	7.732004
H	2.941306	-3.668030	6.943591
H	1.729112	-2.743545	6.056257
H	-7.785823	-4.500691	-3.936967
H	-5.890087	-4.675240	-2.330719
H	-5.813918	-3.136824	-3.192924
H	-6.410052	-3.188041	-1.526345
H	-8.760986	-4.178040	-1.059834
H	-9.743147	-4.745444	-2.401049
H	-8.182582	-6.727853	-2.693937
H	-7.270929	-6.194753	-1.275087
H	-8.954859	-6.688256	-1.103589
H	-8.575728	-1.956367	-2.416276
H	-5.749829	-3.750494	4.629901
H	-6.534956	-5.090447	3.801623
H	-9.237641	-3.570590	3.327710
H	-5.148475	-2.477186	2.599895
H	-9.969343	-2.065750	1.506565
H	-5.874988	-0.967898	0.783370
H	-8.289925	-0.749108	0.224725
H	3.285885	-8.136949	3.465392
H	4.861118	-7.354064	3.333302
H	4.163956	-4.993696	3.520689
H	2.295439	-7.535723	0.608694
H	3.029108	-3.024186	2.530739
H	1.171511	-5.564646	-0.386121
H	1.656910	-2.260141	0.833817
H	-3.217370	9.003421	1.725382
H	-2.951390	7.971210	3.131663
H	-5.271123	7.653510	1.132736
H	-5.397726	4.221824	6.653754
H	-6.632001	4.208772	5.388894
H	-4.361277	2.184865	5.609793
H	-5.737392	0.813496	4.020107
H	-5.311765	2.364516	3.286087
H	-6.937189	2.107897	3.933706
H	-6.075918	0.607132	6.528996
H	-5.849884	2.013411	7.583548
H	-7.272470	1.909847	6.532928
H	-4.966347	5.830950	4.782358
H	-0.424677	6.599512	3.214102
H	0.951459	5.186524	1.754063
H	1.043406	3.921896	3.004197
H	-0.493225	4.277674	2.190609
H	1.991837	6.815420	3.603926
H	1.956853	5.485451	4.788992
H	1.131897	7.014190	5.131612
H	-0.425043	4.189716	5.088396
H	-5.077841	4.642765	-2.161079
H	-4.830628	4.766832	-0.405823
H	-3.094141	3.003659	-3.390996
H	-0.717251	2.334201	-2.616645
H	-0.094614	3.538381	-0.482632
H	-4.755823	5.140191	-7.505709
H	-6.099372	5.366632	-6.397688
H	-2.893167	3.447312	-6.818826
H	-6.723852	3.626005	-4.885385
H	-2.517341	1.190631	-5.867775
H	-6.365158	1.358358	-3.960145
H	-4.245183	0.138828	-4.436273
H	-3.148105	5.961448	-5.733432
H	0.111066	0.354142	-3.373939
H	4.941424	-4.337136	0.534929
H	3.874880	0.652228	-2.490813
H	1.999105	-0.787083	-3.838565
H	-2.183779	4.943277	0.301665
H	-2.465608	5.221659	3.352976
H	-4.221717	6.034208	-1.465175
H	-4.501995	6.207947	-4.628992
H	-4.386463	7.169998	-6.113342
H	0.398817	-8.019757	7.502022
H	-0.630001	-6.882448	6.611242
H	0.796311	-7.578188	5.834377
H	-3.127352	-7.063288	5.631652
H	4.256599	-8.361185	2.010440
H	8.798695	2.949803	-0.817427
H	10.521124	2.659754	-1.108339
H	-5.408293	8.228246	2.798903
H	-0.833296	5.797177	5.645522
H	-7.443625	-4.145925	4.984683
H	-7.903447	-2.006048	-4.052137
H	-9.501365	-2.698545	-3.729975
H	3.986172	0.159875	-6.600208
H	-0.416624	-3.810274	-7.103591
H	6.814486	0.666501	-2.862895
C	0.932252	0.497243	-0.301320
C	2.037802	0.349683	0.748021
O	1.828598	-0.793316	1.607341
H	0.992747	-0.381158	-0.949545
H	2.137017	1.258470	1.352788
H	2.983537	0.177301	0.232767
C	-0.467622	0.562351	0.293949
C	-0.741837	1.238165	1.491823
C	-1.527886	-0.069087	-0.372536
C	-2.037261	1.283028	2.012356
H	0.053282	1.757446	2.018896
C	-2.822430	-0.023546	0.142866
H	-1.338771	-0.578933	-1.314217
C	-3.081261	0.648284	1.339465
H	-2.228789	1.828299	2.932118
H	-3.630201	-0.515263	-0.393265
H	-4.088713	0.682577	1.743656
H	-4.935122	6.548876	2.468035
H	-4.700758	4.493618	3.682246
H	3.807974	4.164610	-2.807329
H	5.554086	5.073899	0.279679
H	6.313794	5.163164	3.249613
H	7.021053	4.091934	2.030078
H	7.265696	5.840902	1.917684
H	4.030868	4.039642	2.729957
H	3.351455	4.136668	1.102795
H	4.728449	3.067406	1.418875
H	5.394009	7.339482	1.470549
H	4.179546	6.640668	2.532393
H	3.639881	6.373269	-0.342849
H	0.915407	8.721678	0.011766
H	2.317209	8.848700	-1.054834
H	0.617754	7.432008	-2.086390
H	2.018536	6.434109	-1.725866
H	0.968333	-0.695283	2.049789