290			
			
C	4.071928	7.359681	-0.459486
C	4.892808	6.744606	0.685147
O	4.995718	7.273367	1.785944
N	5.544104	5.575837	0.398331
C	6.487895	5.023920	1.353494
C	6.929102	3.601696	0.976269
C	8.139385	3.180445	1.820453
C	5.783572	2.588881	1.110083
C	3.170175	-0.550376	-5.991217
C	2.026739	-1.570956	-5.964525
O	1.538072	-2.032798	-6.993974
N	1.557819	-1.934823	-4.722062
C	0.313559	-2.690873	-4.602897
C	-0.881034	-1.770096	-4.934941
O	-0.880112	-0.588219	-4.542838
C	0.197984	-3.268441	-3.173743
C	-0.960247	-4.223702	-2.982914
C	-0.853709	-5.561317	-3.395021
C	-2.164199	-3.801953	-2.402611
C	-1.919079	-6.450181	-3.238508
C	-3.232539	-4.688142	-2.243516
C	-3.114746	-6.014738	-2.662926
N	-1.929449	-2.274693	-5.622469
C	-2.066653	-3.623521	-6.229547
C	-3.527130	-3.647640	-6.698822
C	-3.813505	-2.180465	-7.053995
C	-3.068086	-1.401679	-5.963495
C	4.417255	2.146459	-2.490402
C	5.204899	0.936838	-3.015366
O	5.701980	0.961306	-4.141113
C	3.144797	2.401453	-3.323716
C	2.191680	1.222721	-3.389878
O	1.399366	1.353479	-0.296991
O	2.410060	0.129040	-2.881143
N	5.332558	-0.130297	-2.166292
C	5.965251	-1.379836	-2.587570
C	5.034670	-2.609774	-2.677557
C	4.971163	-3.431662	-1.423620
C	3.879739	-3.652832	-0.621293
C	6.057858	-4.183924	-0.839715
N	4.218546	-4.484839	0.428607
C	5.544560	-4.832179	0.320008
C	7.404974	-4.391493	-1.187340
C	6.335367	-5.658604	1.125698
C	8.194006	-5.212735	-0.389600
C	7.663809	-5.838846	0.757700
C	10.358178	0.034252	-0.748837
C	9.800522	-0.865191	0.359912
C	10.858236	-1.476959	1.299798
C	11.654616	-0.409171	2.065006
C	10.202108	-2.463869	2.276001
C	2.859418	6.468726	-0.754273
O	2.258587	6.080297	0.449088
C	-4.896327	-5.294285	5.148184
C	-4.079522	-4.617315	4.076929
C	-3.680699	-5.305930	2.924648
C	-3.735152	-3.262730	4.181328
C	-2.981139	-4.669206	1.901551
C	-3.046635	-2.605605	3.165844
C	-2.668330	-3.311163	2.020986
O	-2.002054	-2.620013	1.048818
C	-1.014450	-7.209755	6.686988
C	-0.108493	-6.090708	7.221599
C	-0.031653	-4.932836	6.207391
C	1.274025	-6.647216	7.592688
C	0.742834	-3.699656	6.684239
C	-8.757829	-0.218773	-2.999730
C	-8.865666	-1.737300	-2.797331
C	-10.151271	-2.090957	-2.022954
C	-7.605251	-2.279152	-2.105715
C	-10.468285	-3.588939	-1.953529
C	-7.130430	-2.279462	4.417220
C	-7.851491	-1.372363	3.446870
C	-9.221685	-1.112440	3.580422
C	-7.156444	-0.748097	2.400871
C	-9.880697	-0.249365	2.703387
C	-7.810805	0.116328	1.522763
C	-9.176512	0.370010	1.670582
C	2.139408	-8.501834	2.521132
C	1.658150	-7.227090	1.887824
C	1.749779	-6.002412	2.556930
C	1.084966	-7.236720	0.609431
C	1.299152	-4.815919	1.973138
C	0.634988	-6.068750	0.007141
C	0.753373	-4.849241	0.683014
O	0.340965	-3.718433	0.039431
C	-2.317937	8.500837	2.359781
C	-0.858846	8.875202	2.607547
C	0.056102	7.879055	1.896388
O	-0.301595	6.653117	1.990519
O	1.052288	8.299713	1.268312
C	-2.791173	5.708537	4.937626
C	-1.406336	5.197563	5.400775
O	-1.253860	4.706310	6.523581
C	-3.937723	5.165985	5.796626
C	-4.233762	3.661631	5.638156
C	-5.211605	3.194131	6.725836
C	-4.776834	3.312954	4.244684
N	-0.404633	5.354618	4.500208
C	0.998666	5.058625	4.792306
C	1.710363	4.365704	3.621756
C	3.224829	4.346000	3.859690
C	1.155861	2.956135	3.386983
C	-2.718080	5.908769	-1.189715
C	-1.551613	4.977176	-1.142538
N	-0.543003	5.114215	-0.213782
C	-1.197029	3.886578	-1.905669
C	0.350875	4.133708	-0.436379
N	0.000952	3.361781	-1.456299
C	-2.413225	7.123330	-5.486644
C	-3.510405	6.325099	-6.216764
C	-3.784012	4.968366	-5.598505
C	-2.843790	3.931703	-5.696647
C	-4.969483	4.722274	-4.894351
C	-3.072900	2.691267	-5.100644
C	-5.209606	3.481120	-4.300676
C	-4.260465	2.464196	-4.399991
H	3.820857	-0.584146	-5.118767
H	2.733476	0.451052	-6.057760
H	1.140337	-3.781849	-2.958444
H	0.118207	-2.442510	-2.461825
H	0.076843	-5.908425	-3.838667
H	-2.262791	-2.775687	-2.059257
H	-1.812788	-7.482478	-3.560511
H	-4.154164	-4.340479	-1.785470
H	-3.944185	-6.704515	-2.536245
H	0.362201	-3.503307	-5.331665
H	-3.677500	-4.335761	-7.535105
H	-4.172522	-3.971324	-5.874663
H	-3.392237	-1.942683	-8.037158
H	-4.879875	-1.941464	-7.079116
H	-2.706676	-0.424046	-6.287776
H	-3.693639	-1.243319	-5.075608
H	-1.850920	-4.408171	-5.504988
H	3.413982	2.652318	-4.356048
H	2.577494	3.249684	-2.925370
H	4.135444	2.015607	-1.442311
H	5.411340	-3.241883	-3.493815
H	4.033268	-2.288613	-2.979112
H	2.866179	-3.292232	-0.724669
H	7.825347	-3.923766	-2.073380
H	9.233735	-5.381689	-0.655089
H	5.924027	-6.144761	2.005852
H	8.303353	-6.475808	1.362118
H	6.798563	-1.602547	-1.911228
H	9.230290	-1.684995	-0.096506
H	9.078044	-0.297376	0.963786
H	11.567576	-2.041765	0.674612
H	12.386739	-0.871653	2.736536
H	12.201110	0.259595	1.392972
H	10.986659	0.208125	2.678599
H	10.948505	-2.943046	2.919981
H	9.656294	-3.250212	1.744681
H	9.486437	-1.947697	2.927755
H	10.842430	0.929969	-0.346594
H	1.821811	6.892775	0.830775
H	-5.957760	-5.344727	4.873742
H	-4.834380	-4.755571	6.098655
H	-3.922877	-6.361019	2.820775
H	-4.016510	-2.708053	5.072508
H	-2.677533	-5.218541	1.014649
H	-2.792084	-1.553587	3.244521
H	-1.528465	-3.228451	0.451229
H	-0.568201	-5.695019	8.140656
H	1.186304	-7.476410	8.303775
H	1.791562	-7.028809	6.703264
H	1.914790	-5.887654	8.050192
H	0.410435	-5.308273	5.273803
H	-1.054100	-4.630397	5.947849
H	0.333127	-3.312398	7.624640
H	1.803012	-3.916319	6.850642
H	0.686502	-2.894258	5.945307
H	-8.937772	-2.204195	-3.792177
H	-7.619978	-3.370162	-2.019016
H	-6.702034	-2.004872	-2.662035
H	-7.513812	-1.864758	-1.094596
H	-10.074217	-1.687405	-1.003470
H	-10.996698	-1.572304	-2.494962
H	-10.542893	-4.025684	-2.956761
H	-9.700512	-4.144673	-1.406325
H	-11.421899	-3.765217	-1.444659
H	-8.688547	0.296974	-2.034511
H	-6.352255	-2.858596	3.917452
H	-7.823639	-2.972666	4.904240
H	-9.777845	-1.590471	4.383556
H	-6.093628	-0.939217	2.274922
H	-10.943554	-0.060585	2.828359
H	-7.252379	0.596022	0.723578
H	-9.684957	1.046807	0.989940
H	1.307126	-9.098632	2.917353
H	2.819153	-8.304933	3.355776
H	2.183387	-5.968510	3.553609
H	1.002226	-8.177393	0.069921
H	1.367465	-3.870247	2.501409
H	0.205115	-6.079106	-0.987858
H	0.561989	-2.912471	0.591490
H	-0.627463	9.888392	2.266300
H	-0.638387	8.834055	3.683176
H	-2.561497	8.569421	1.292961
H	-3.680793	5.357571	6.843646
H	-4.852485	5.735265	5.575931
H	-3.285649	3.130646	5.789226
H	-4.969310	2.237435	4.153393
H	-4.079781	3.593525	3.448722
H	-5.724990	3.831379	4.050917
H	-5.418629	2.120705	6.643592
H	-4.808956	3.383540	7.726570
H	-6.171409	3.721302	6.645653
H	-2.771289	6.803424	5.011091
H	1.525134	4.963149	2.722301
H	1.550711	2.530836	2.458481
H	1.417910	2.285067	4.216379
H	0.064048	2.983181	3.309441
H	3.730428	3.818188	3.045695
H	3.476794	3.836103	4.799767
H	3.634753	5.360598	3.893951
H	1.016996	4.438383	5.694155
H	-3.417964	5.595945	-1.969660
H	-3.260235	5.929271	-0.236593
H	-1.730745	3.456599	-2.740540
H	1.242282	4.033557	0.158524
H	-3.212854	6.192867	-7.265658
H	-4.437444	6.910266	-6.231706
H	-1.914997	4.101620	-6.235822
H	-5.711239	5.513221	-4.808983
H	-2.321598	1.908546	-5.160598
H	-6.134542	3.313192	-3.755581
H	-4.435207	1.503962	-3.923815
H	-1.467389	6.573720	-5.471670
H	3.563421	-4.834421	1.112710
H	4.725837	-0.148923	-1.358979
H	1.820332	-1.346769	-3.930362
H	-0.456717	5.789806	0.574303
H	-0.575446	5.836885	3.609833
H	-2.409460	6.939577	-1.406354
H	-2.694876	7.317053	-4.447166
H	-2.238488	8.086057	-5.978867
H	-1.149018	-8.007039	7.426673
H	-2.003174	-6.821231	6.420513
H	-0.584350	-7.661141	5.784427
H	-4.562775	-6.322748	5.324525
H	2.671039	-9.134197	1.801917
H	9.561777	0.367436	-1.420284
H	11.100402	-0.499589	-1.354862
H	-3.007496	9.165095	2.895871
H	1.527602	5.993425	5.029753
H	-6.641941	-1.697499	5.208796
H	-7.867076	0.045213	-3.580149
H	-9.632216	0.178282	-3.527160
H	3.754661	-0.722342	-6.896104
H	-1.369148	-3.716859	-7.071697
H	6.388390	-1.157434	-3.569707
C	0.657430	0.175074	-0.070801
C	1.236923	-0.424995	1.214622
O	0.594648	-1.650975	1.599692
H	0.828601	-0.545995	-0.888358
H	1.172805	0.300141	2.031385
H	2.292087	-0.662975	1.060758
C	-0.848071	0.413393	0.017547
C	-1.436147	1.004396	1.144473
C	-1.670771	0.069223	-1.062418
C	-2.814076	1.217052	1.201604
H	-0.815560	1.321913	1.976124
C	-3.048038	0.286300	-1.010664
H	-1.227978	-0.337237	-1.968034
C	-3.625086	0.853427	0.125261
H	-3.251440	1.680816	2.080814
H	-3.667331	0.018528	-1.862677
H	-4.696248	1.031727	0.166381
H	-2.506505	7.475140	2.671970
H	-2.929500	5.483970	3.874407
H	5.070998	3.019847	-2.571046
H	7.251931	3.621882	-0.077533
H	7.885430	3.174735	2.887297
H	8.473520	2.172127	1.553602
H	8.984706	3.863355	1.681933
H	5.531422	2.431820	2.164955
H	4.877768	2.939428	0.607943
H	6.062400	1.619380	0.682585
H	7.372254	5.675539	1.432421
H	6.013131	5.031464	2.339313
H	5.569655	5.245892	-0.555013
H	3.736651	8.334837	-0.100396
H	4.697398	7.505709	-1.352075
H	2.161913	6.997753	-1.424076
H	3.173424	5.556702	-1.282965
H	-0.369722	-1.508114	1.641019
O	1.106005	1.479218	-4.119267
H	0.508540	0.692658	-4.140341
H	0.864823	1.953622	-0.885399