290			
			
C	2.894598	8.047116	0.608349
C	3.021580	1.002025	-6.050138
C	1.990045	-0.126810	-6.180008
C	3.824141	7.396762	1.645285
O	3.861345	7.781221	2.811874
O	1.602039	-0.519276	-7.280691
N	1.538431	-0.655530	-5.004973
N	4.644739	6.415076	1.187771
C	0.541722	-1.719775	-4.993561
C	-0.881867	-1.111601	-4.988801
O	-1.161621	-0.169579	-4.225195
C	0.737134	-2.597686	-3.729730
C	-0.171523	-3.806866	-3.686703
C	0.184517	-4.990785	-4.350556
C	-1.393066	-3.768977	-2.999574
C	-0.660256	-6.102223	-4.341478
C	-2.241620	-4.877651	-2.991045
C	-1.880592	-6.046680	-3.664065
N	-1.837806	-1.625944	-5.785504
C	-1.716167	-2.741551	-6.736917
C	-3.174294	-3.072358	-7.084009
C	-3.879151	-1.711165	-6.981032
C	-3.194982	-1.050648	-5.777378
C	3.946534	3.302957	-2.185519
C	5.158972	2.363419	-2.336301
O	6.297630	2.808897	-2.168276
C	2.567353	2.822128	-2.669610
C	2.012038	1.579381	-1.922927
O	1.476855	1.768538	-0.809158
O	2.168657	0.443293	-2.487687
N	4.912003	1.066092	-2.655656
C	5.989939	0.098034	-2.815968
C	5.492702	-1.240049	-3.401175
C	5.203960	-2.302563	-2.379446
C	4.058393	-2.467883	-1.637018
C	6.118693	-3.331517	-1.951299
C	5.453017	-4.093513	-0.949290
C	7.431043	-3.689048	-2.310549
N	4.206457	-3.538580	-0.776533
C	6.056229	-5.188024	-0.318941
C	8.035735	-4.774582	-1.683645
C	7.352679	-5.516692	-0.697472
C	10.173003	1.856689	-0.794693
C	9.767717	0.516331	-0.169460
C	10.932064	-0.439200	0.155063
C	11.905026	0.154845	1.184131
C	10.400604	-1.798234	0.635419
C	5.668739	5.850857	2.043266
C	6.222703	4.531900	1.476578
C	7.526155	4.151581	2.190859
C	5.199429	3.390624	1.560109
C	2.124767	7.071537	-0.294691
O	1.353597	6.143788	0.428518
C	-3.993639	-6.484805	4.265203
C	-2.960074	-5.385922	4.314029
C	-2.376770	-4.899734	3.139136
C	-2.515606	-4.845453	5.529831
C	-1.375784	-3.931269	3.162869
C	0.162512	-8.013076	5.489366
C	-1.514142	-3.877897	5.575064
C	-0.925093	-3.421872	4.387978
C	1.431946	-7.651482	6.274725
C	1.862451	-6.205835	5.959169
O	0.065321	-2.492619	4.486093
C	2.545331	-8.673693	6.000179
C	3.036298	-5.679311	6.791363
C	-8.750736	-0.881101	-3.016654
C	-8.322896	-2.283763	-3.469793
C	-9.089527	-3.363105	-2.679787
C	-6.799259	-2.445543	-3.357247
C	-8.870401	-4.800194	-3.164697
C	-6.660591	-3.758527	4.001638
C	-7.475301	-2.859723	3.102143
C	-8.520816	-3.366719	2.321422
C	-7.202490	-1.484785	3.029398
C	-9.273349	-2.531094	1.492211
C	-7.948533	-0.646159	2.201825
C	-8.989444	-1.166886	1.428492
C	3.368436	-8.191116	1.169317
C	2.555848	-6.944686	0.903106
C	2.633846	-5.824082	1.735329
C	1.708350	-6.861057	-0.213788
C	1.907829	-4.656567	1.468906
C	-3.522178	7.798795	3.581236
C	0.978303	-5.713621	-0.497655
C	-2.002554	7.983649	3.476001
C	1.075730	-4.592141	0.341508
C	-1.373689	7.077079	2.413424
O	0.348306	-3.493383	0.009146
O	-1.617722	5.818308	2.538273
O	-0.688617	7.589887	1.502676
C	-3.520899	4.615638	5.710040
C	-2.055286	4.356639	6.117393
O	-1.780924	3.915009	7.235683
C	-4.466674	3.549540	6.276022
C	-4.280747	2.133435	5.696300
C	-5.148519	1.126197	6.464502
C	-4.580207	2.067760	4.191413
N	-1.116100	4.660271	5.183504
C	0.318783	4.562396	5.460290
C	1.150723	4.316376	4.195448
C	2.642162	4.459274	4.522321
C	0.841837	2.950162	3.572349
C	-3.627113	5.733052	-0.317325
C	-2.480399	4.848762	-0.646947
C	-2.186726	4.165028	-1.790925
N	-1.441516	4.613928	0.235549
C	-0.542935	3.824735	-0.351014
N	-0.979851	3.533479	-1.580162
C	-4.593689	6.771136	-5.223109
C	-4.558411	5.287308	-4.921902
C	-3.480536	4.495669	-5.346005
C	-5.586859	4.671146	-4.196451
C	-3.421675	3.134053	-5.045354
C	-5.541062	3.306819	-3.900623
C	-4.456340	2.536255	-4.320282
O	0.573929	-1.476152	1.919024
H	3.510950	1.032530	-5.076068
H	2.523874	1.961230	-6.233154
H	1.785249	-2.913254	-3.718269
O	-0.282654	2.329644	-3.952833
H	0.581774	-1.969276	-2.847921
H	1.138877	-5.042987	-4.869513
H	-1.668706	-2.873236	-2.451206
H	-0.362248	-7.011767	-4.855977
H	-3.179504	-4.830883	-2.444685
H	-2.537979	-6.911593	-3.650131
H	0.692568	-2.308310	-5.899713
H	-3.267391	-3.539117	-8.068252
H	-3.579899	-3.766494	-6.339786
H	-3.695922	-1.121786	-7.886528
H	-4.961153	-1.792820	-6.848111
H	-3.143707	0.037966	-5.845229
H	-3.694832	-1.301101	-4.833046
H	-1.198887	-3.588745	-6.284808
H	2.625961	2.612659	-3.743114
H	1.867753	3.649822	-2.519685
H	3.879407	3.553444	-1.120616
H	6.261503	-1.618407	-4.084526
H	4.608854	-1.055654	-4.022540
H	3.154505	-1.872050	-1.639891
H	7.968547	-3.124862	-3.068594
H	9.049025	-5.056951	-1.955696
H	5.526600	-5.754913	0.440669
H	7.849590	-6.359076	-0.224117
H	6.493951	-0.079066	-1.856152
H	6.461416	4.688817	0.413335
H	7.930297	3.215948	1.791474
H	8.291739	4.926383	2.072640
H	7.356191	4.009704	3.265426
H	5.542276	2.521366	0.990852
H	4.223756	3.692191	1.166341
H	5.051180	3.078438	2.600718
H	5.237669	5.697763	3.037393
H	1.191227	-7.698932	7.348610
H	0.585291	6.632709	0.817524
H	2.842507	-8.649106	4.943984
H	-4.566322	-6.455409	3.333587
H	-4.703423	-6.409497	5.096681
H	3.439460	-8.483564	6.602184
H	-2.702020	-5.289877	2.177704
H	2.208209	-9.692357	6.223529
H	-2.960149	-5.188790	6.461567
H	2.105028	-6.135765	4.889329
H	-0.950533	-3.582156	2.229385
H	0.997862	-5.547298	6.105971
H	-1.176736	-3.460813	6.518600
H	2.824264	-5.752098	7.864993
H	0.380436	-2.245287	3.593849
H	3.961289	-6.233249	6.599560
H	3.232165	-4.626280	6.565449
H	0.350946	-7.976528	4.410049
H	-8.595998	-2.393038	-4.531077
H	-6.457043	-3.412466	-3.738617
H	-6.281626	-1.665431	-3.927091
H	-6.474156	-2.364865	-2.312851
H	-8.815157	-3.286787	-1.618309
H	-10.162301	-3.132134	-2.732720
H	-9.124149	-4.903529	-4.226516
H	-7.831874	-5.122146	-3.039525
H	-9.497816	-5.502317	-2.605582
H	-8.513070	-0.725127	-1.956223
H	-5.599954	-3.750111	3.728624
H	-7.010306	-4.793228	3.955029
H	-8.749858	-4.428827	2.364635
H	-6.400954	-1.066361	3.633254
H	-10.083050	-2.947483	0.899073
H	-7.717973	0.414725	2.164234
H	-9.575314	-0.514050	0.787789
H	-1.744335	9.020034	3.243095
H	-1.539614	7.734051	4.439513
H	2.770235	-9.098232	1.028091
H	-4.017351	8.089541	2.648373
H	3.755934	-8.203881	2.192689
H	-4.301767	3.507331	7.357793
H	-5.506832	3.868604	6.116389
H	3.273419	-5.851935	2.614272
H	1.622076	-7.715950	-0.880809
H	-3.230156	1.853483	5.851324
H	1.976897	-3.807021	2.141818
H	-4.996151	0.105218	6.095532
H	0.330020	-5.660148	-1.365019
H	-4.912370	1.133274	7.533964
H	0.502445	-2.755675	0.637074
H	-6.215234	1.362440	6.356356
H	-4.443085	1.051340	3.805121
H	-3.924755	2.722391	3.609588
H	-5.617313	2.365050	3.986288
H	-3.794839	5.594687	6.124497
H	0.895927	5.087422	3.457244
H	3.248781	4.254174	3.636710
H	2.944738	3.755726	5.309110
H	2.882752	5.473770	4.855476
H	1.399813	2.815953	2.639536
H	1.122211	2.139478	4.258032
H	-0.224723	2.845953	3.350720
H	0.459147	3.753003	6.185330
H	-4.360925	5.712755	-1.125461
H	-4.120492	5.420843	0.609400
H	-2.722696	4.072826	-2.719332
H	0.393393	3.475167	0.051375
H	-4.370486	6.928727	-6.285596
H	-5.611170	7.148085	-5.063600
H	-6.432957	5.267087	-3.861788
H	-2.668446	4.954086	-5.905395
H	-6.347454	2.850280	-3.333211
H	-2.547820	2.555783	-5.327981
H	-4.403576	1.481364	-4.068881
H	10.792795	1.702251	-1.687173
H	10.741360	2.482938	-0.100403
H	9.078890	0.003022	-0.852453
H	9.193149	0.700367	0.749978
H	11.491634	-0.606285	-0.778836
H	12.721412	-0.542811	1.403627
H	12.353910	1.089342	0.833285
H	11.388595	0.367571	2.128672
H	11.219357	-2.502077	0.824238
H	9.725546	-2.258016	-0.095406
H	9.839406	-1.684099	1.571214
H	-0.480347	1.364876	-3.983658
H	0.636298	2.401381	-4.235203
H	6.490870	6.571997	2.170892
H	-3.941169	8.416315	4.384184
H	-9.829686	-0.732488	-3.139268
H	3.767462	0.870152	-6.836037
H	6.741507	0.550494	-3.473164
H	4.225881	4.226149	-2.703444
H	-0.182384	-9.024798	5.733897
H	-6.720330	-3.432660	5.047497
H	0.668261	5.484104	5.950054
H	-3.529367	-7.477573	4.328880
H	4.228402	-8.263552	0.491830
H	-1.388990	5.067164	1.216264
H	-0.652389	-7.314110	5.702391
H	-1.396809	5.063859	4.285220
H	1.793635	-0.219886	-4.106858
H	3.950371	0.715651	-2.653165
H	9.282834	2.413768	-1.103956
H	3.493871	-3.891413	-0.152878
C	-0.437932	-0.394083	2.048054
C	0.962713	-0.080824	1.741912
H	1.590996	0.298836	2.543330
H	-0.744919	-0.291752	3.087430
C	-1.560245	-0.396724	1.071449
C	-2.836739	-0.741300	1.539705
C	-1.383665	-0.093648	-0.286247
C	-3.924342	-0.790224	0.669297
H	-2.972196	-0.982491	2.590760
C	-2.472237	-0.150347	-1.158824
H	-0.409904	0.209548	-0.660614
C	-3.739337	-0.497593	-0.682821
H	-4.907901	-1.056708	1.045103
H	-2.321440	0.074474	-2.209541
H	-4.585240	-0.533186	-1.364710
H	1.257424	0.206113	0.733644
H	-3.291338	6.766148	-0.170332
H	-3.772300	6.756867	3.782753
H	-3.603112	4.701519	4.623006
H	-8.238221	-0.100743	-3.589200
H	-1.152438	-2.417231	-7.620460
C	-3.607591	7.604433	-4.383063
H	-2.577363	7.267141	-4.530942
H	-3.660240	8.663228	-4.657325
H	-3.829540	7.520261	-3.313879
H	4.628040	6.155518	0.213298
H	2.185634	8.653126	1.178097
H	3.494525	8.729179	-0.011886
H	1.507811	7.663165	-0.991888
H	2.820946	6.495942	-0.922444
H	-0.518925	2.954882	-2.299313