290			
			
C	2.656225	7.955315	-0.450317
C	3.566744	7.485078	0.695186
O	3.600988	8.089238	1.765493
N	4.379817	6.429634	0.436181
C	5.432273	6.061797	1.362889
C	5.919541	4.618920	1.145209
C	7.202655	4.373568	1.950531
C	4.840604	3.586869	1.501448
C	3.152223	0.037098	-6.021503
C	2.122701	-1.095274	-5.998483
O	1.762580	-1.646807	-7.039692
N	1.628352	-1.452169	-4.772894
C	0.702595	-2.571138	-4.655550
C	-0.762920	-2.092399	-4.637796
O	-1.110923	-1.136987	-3.916483
C	1.003206	-3.409800	-3.385668
C	0.253508	-4.724639	-3.355664
C	0.780256	-5.858574	-3.992142
C	-0.990263	-4.836152	-2.718228
C	0.080354	-7.066516	-4.004294
C	-1.694845	-6.041194	-2.731475
C	-1.164316	-7.159676	-3.377956
N	-1.680133	-2.750809	-5.378589
C	-1.475206	-3.891818	-6.296964
C	-2.896994	-4.416865	-6.530958
C	-3.763818	-3.151959	-6.438677
C	-3.096277	-2.348247	-5.315735
C	3.902839	2.890367	-2.503082
C	5.135711	1.968226	-2.522746
O	6.263729	2.462415	-2.458354
C	2.511117	2.317014	-2.842581
C	2.027833	1.183415	-1.917256
O	1.563104	1.527935	-0.783729
O	2.150505	-0.012043	-2.308445
N	4.925152	0.627895	-2.607360
C	6.036158	-0.315591	-2.609202
C	5.575280	-1.765670	-2.876397
C	5.383333	-2.600747	-1.643633
C	4.208624	-2.909100	-1.000412
C	6.434505	-3.239119	-0.890164
N	4.463462	-3.698711	0.102877
C	5.816690	-3.922944	0.195596
C	7.832170	-3.309959	-1.027260
C	6.553438	-4.664277	1.126388
C	8.567561	-4.044219	-0.103767
C	7.932985	-4.714225	0.963574
C	10.112698	1.825306	-0.744584
C	9.858797	0.775358	0.342959
C	11.122389	0.203857	1.015445
C	11.929379	1.278624	1.759268
C	10.754981	-0.947110	1.963780
C	1.994492	6.873575	-1.313784
O	1.190609	5.983339	-0.578006
C	-4.015398	-6.084612	5.060432
C	-3.185502	-4.879208	4.674508
C	-2.611346	-4.766649	3.400891
C	-2.932343	-3.843755	5.586319
C	-1.797103	-3.690535	3.050243
C	-2.121756	-2.759327	5.255954
C	-1.526700	-2.679093	3.987354
O	-0.704663	-1.634094	3.739172
C	0.133084	-7.309921	6.607883
C	1.089399	-6.183062	7.026856
C	0.884360	-4.953132	6.122862
C	2.541840	-6.682002	7.032445
C	1.664940	-3.697607	6.524811
C	-8.664955	-1.708808	-3.081713
C	-7.997785	-3.067319	-2.820925
C	-8.830157	-3.893058	-1.819597
C	-6.546275	-2.873920	-2.356611
C	-8.357011	-5.337547	-1.624602
C	-6.733338	-3.496475	4.333076
C	-7.180027	-2.541018	3.251715
C	-8.541640	-2.378870	2.955420
C	-6.247984	-1.799437	2.515302
C	-8.961031	-1.501476	1.956108
C	-6.661854	-0.917382	1.513876
C	-8.020215	-0.764266	1.232040
C	3.477553	-8.017097	2.450352
C	2.679698	-6.884472	1.850537
C	2.542777	-5.651204	2.495523
C	2.046401	-7.035743	0.607248
C	1.809629	-4.599684	1.930718
C	1.317532	-6.006863	0.026259
C	1.191589	-4.768131	0.679907
O	0.481626	-3.794325	0.070152
C	-3.844845	7.962771	2.345562
C	-2.326403	8.144081	2.217315
C	-1.659227	7.095817	1.317858
O	-1.956106	5.868653	1.571712
O	-0.882894	7.478551	0.415385
C	-3.838706	5.117344	4.908698
C	-2.371213	4.938387	5.360669
O	-2.095206	4.698963	6.538310
C	-4.818984	4.364679	5.815552
C	-4.903888	2.846238	5.563127
C	-5.564401	2.134400	6.752187
C	-5.652683	2.522235	4.261540
N	-1.416440	5.108819	4.408819
C	0.006930	5.131495	4.777339
C	0.924136	5.528213	3.618038
C	2.307587	5.906006	4.165507
C	1.023276	4.419749	2.559718
C	-3.779105	5.359009	-1.217295
C	-2.594096	4.493295	-1.446260
N	-1.583497	4.380106	-0.511429
C	-2.250943	3.693525	-2.497815
C	-0.656801	3.544151	-0.971673
N	-1.040717	3.112238	-2.178518
C	-3.672781	6.630253	-5.507320
C	-4.613205	5.658574	-6.245901
C	-4.486381	4.219643	-5.794704
C	-3.483118	3.387736	-6.313620
C	-5.361247	3.684355	-4.839179
C	-3.350879	2.066549	-5.881177
C	-5.232449	2.364777	-4.401233
C	-4.221686	1.552601	-4.916032
O	-0.230300	1.432930	-4.226731
H	3.656092	0.185979	-5.064864
H	2.644877	0.968392	-6.294530
H	2.081490	-3.598240	-3.378213
H	0.770400	-2.821872	-2.493887
H	1.752541	-5.793966	-4.474919
H	-1.388948	-3.981559	-2.181170
H	0.510232	-7.934788	-4.496156
H	-2.650957	-6.110087	-2.220236
H	-1.708572	-8.099863	-3.380013
H	0.870897	-3.183277	-5.543465
H	-2.990844	-4.940542	-7.486014
H	-3.162230	-5.117194	-5.731735
H	-3.717430	-2.593055	-7.380279
H	-4.815261	-3.362374	-6.226396
H	-3.186054	-1.267799	-5.443002
H	-3.504638	-2.597678	-4.328394
H	-0.828304	-4.645720	-5.848448
H	2.484463	1.951223	-3.870265
H	1.800455	3.144980	-2.769874
H	3.872351	3.331699	-1.499622
H	6.332645	-2.246798	-3.507644
H	4.656544	-1.751816	-3.474275
H	3.196970	-2.615823	-1.242600
H	8.333119	-2.799684	-1.845905
H	9.647510	-4.108419	-0.204626
H	6.060841	-5.181352	1.944666
H	8.533563	-5.279847	1.670452
H	6.579554	-0.263960	-1.657385
H	9.293277	-0.058605	-0.092649
H	9.208170	1.203208	1.119562
H	11.763152	-0.206254	0.218920
H	12.817999	0.846446	2.233686
H	12.266986	2.076902	1.091100
H	11.323866	1.739710	2.549667
H	11.648807	-1.398901	2.409540
H	10.199613	-1.735178	1.444134
H	10.122926	-0.586817	2.784807
H	10.558758	2.739128	-0.338449
H	0.419489	6.488885	-0.216432
H	-4.640896	-6.426488	4.228593
H	-4.675848	-5.861328	5.904466
H	-2.794549	-5.544482	2.662480
H	-3.374273	-3.888185	6.579774
H	-1.359036	-3.636327	2.058479
H	-1.928584	-1.965100	5.970110
H	-0.400749	-1.614240	2.794835
H	0.832928	-5.887623	8.056581
H	2.658089	-7.555957	7.683981
H	2.852788	-6.979673	6.022838
H	3.238689	-5.914105	7.382439
H	1.136625	-5.228267	5.089804
H	-0.183317	-4.708002	6.108308
H	1.445188	-3.407848	7.559737
H	2.748928	-3.835382	6.444789
H	1.389489	-2.856163	5.881275
H	-7.979178	-3.620648	-3.773359
H	-6.018496	-3.826205	-2.247087
H	-5.983517	-2.267046	-3.075657
H	-6.510699	-2.361387	-1.388169
H	-8.834733	-3.375199	-0.850790
H	-9.873305	-3.905953	-2.164469
H	-8.329649	-5.878683	-2.578234
H	-7.355201	-5.383679	-1.186957
H	-9.029612	-5.882711	-0.954162
H	-8.716134	-1.118213	-2.158993
H	-5.664028	-3.403381	4.533912
H	-6.927188	-4.537485	4.046631
H	-9.280481	-2.944455	3.519297
H	-5.188227	-1.910765	2.728826
H	-10.021627	-1.385822	1.748251
H	-5.917820	-0.348180	0.965271
H	-8.345245	-0.069002	0.462732
H	2.894281	-8.944570	2.489762
H	3.795720	-7.784305	3.471170
H	3.012095	-5.498548	3.464490
H	2.130370	-7.983611	0.079444
H	1.701034	-3.658411	2.461800
H	0.835798	-6.139280	-0.935242
H	0.480705	-2.930477	0.597166
H	-2.074142	9.135786	1.832398
H	-1.867639	8.053023	3.210839
H	-4.342788	8.120622	1.381526
H	-4.493830	4.539133	6.846172
H	-5.823512	4.798594	5.710939
H	-3.875902	2.466148	5.479231
H	-5.642602	1.448535	4.045963
H	-5.215552	3.036451	3.399070
H	-6.702086	2.836414	4.333148
H	-5.626964	1.053192	6.585795
H	-5.000062	2.303224	7.675146
H	-6.585839	2.504473	6.910827
H	-4.048317	6.193376	4.961192
H	0.503466	6.422644	3.139845
H	1.538245	4.777976	1.664046
H	1.571613	3.557294	2.959725
H	0.031048	4.072231	2.257034
H	2.942496	6.310303	3.374428
H	2.805453	5.034682	4.610483
H	2.228615	6.676224	4.941051
H	0.296708	4.145206	5.166118
H	-4.506307	5.226841	-2.022048
H	-4.261877	5.119827	-0.264977
H	-2.762604	3.485643	-3.421726
H	-0.573710	2.412178	-2.778443
H	0.258424	3.240261	-0.488639
H	-4.410497	5.717873	-7.322583
H	-5.649551	5.988996	-6.109051
H	-2.805003	3.777820	-7.068970
H	-6.155878	4.308600	-4.437474
H	-2.581323	1.430270	-6.312701
H	-5.920453	1.972041	-3.658209
H	-4.106322	0.533056	-4.564194
H	-2.624475	6.347933	-5.645595
H	-0.528199	0.500104	-4.119900
H	-0.840129	1.809936	-4.874421
H	3.755514	-4.085659	0.713836
H	3.979277	0.253742	-2.550220
H	1.869158	-0.920446	-3.930085
H	-1.593637	4.956682	0.413063
H	-1.679800	5.333293	3.447213
H	-3.490701	6.415020	-1.175274
H	-3.873361	6.633834	-4.431567
H	-3.800971	7.651435	-5.880149
H	0.227501	-8.183662	7.263502
H	-0.909270	-6.974874	6.636827
H	0.345297	-7.637776	5.582995
H	-3.385000	-6.933349	5.357252
H	4.381114	-8.231863	1.865885
H	9.175559	2.103974	-1.237628
H	10.791913	1.438811	-1.514574
H	-4.270124	8.678549	3.057546
H	0.127485	5.830263	5.614677
H	-7.274192	-3.316708	5.269372
H	-8.105349	-1.123302	-3.819903
H	-9.687859	-1.829886	-3.455780
H	3.883200	-0.189006	-6.799687
H	-1.009315	-3.539118	-7.225792
H	6.744434	0.009275	-3.380204
C	-0.163298	-0.657660	0.160613
C	1.151123	-0.087045	0.462169
O	0.272700	-1.501998	1.227454
H	-0.208409	-1.169581	-0.806207
H	1.246787	0.588993	1.298207
H	2.024322	-0.578518	0.066997
C	-1.421326	0.130559	0.404530
C	-1.664130	0.753170	1.636557
C	-2.375960	0.236623	-0.612950
C	-2.834184	1.480792	1.841147
H	-0.951760	0.648608	2.447803
C	-3.549125	0.966401	-0.408241
H	-2.193281	-0.247899	-1.569413
C	-3.779852	1.591656	0.818119
H	-3.006006	1.963546	2.797898
H	-4.277757	1.051504	-1.209876
H	-4.691181	2.160225	0.980954
H	-4.084411	6.953530	2.682411
H	-3.944620	4.839722	3.853694
H	4.138193	3.708544	-3.191218
H	6.168882	4.495746	0.079456
H	7.019334	4.491773	3.025639
H	7.576190	3.357848	1.786417
H	7.996724	5.073167	1.666869
H	4.603246	3.628175	2.571165
H	3.909260	3.761326	0.955093
H	5.182244	2.572679	1.270673
H	6.281422	6.755729	1.261898
H	5.047863	6.188614	2.378303
H	4.363517	5.996782	-0.474741
H	1.881084	8.568925	0.016851
H	3.253794	8.618865	-1.092622
H	1.420814	7.379089	-2.109188
H	2.753266	6.268099	-1.831315