290			
			
C	2.067548	8.160155	0.254100
C	2.564933	0.942225	-6.198715
C	1.636055	-0.273083	-6.223243
C	3.094985	7.630717	1.267184
O	3.168923	8.101104	2.400529
O	1.221711	-0.740213	-7.284891
N	1.291008	-0.808714	-5.009583
N	3.954898	6.678952	0.822313
C	0.391240	-1.956894	-4.955966
C	-1.078870	-1.486188	-4.895799
O	-1.411971	-0.536969	-4.161030
C	0.731427	-2.862597	-3.743521
C	0.008371	-4.192367	-3.757110
C	0.516689	-5.268801	-4.499479
C	-1.187518	-4.374971	-3.049695
C	-0.159304	-6.488746	-4.550485
C	-1.868704	-5.592609	-3.101754
C	-1.359817	-6.652190	-3.855509
N	-2.019223	-2.129157	-5.614803
C	-1.833549	-3.235024	-6.567816
C	-3.261277	-3.743340	-6.804524
C	-4.114433	-2.472987	-6.670111
C	-3.429492	-1.708305	-5.530034
C	3.433950	3.442114	-2.446323
C	4.701937	2.603701	-2.686278
O	5.801041	3.162279	-2.709550
C	2.050740	2.814355	-2.691759
C	1.702918	1.580802	-1.825241
O	1.347905	1.807492	-0.626554
O	1.802459	0.438373	-2.362581
N	4.562771	1.260846	-2.864611
C	5.735052	0.416373	-3.074290
C	5.371366	-1.027376	-3.480665
C	5.270674	-2.002750	-2.342717
C	4.131931	-2.458224	-1.724968
C	6.374368	-2.649054	-1.675846
C	5.821362	-3.484930	-0.663155
C	7.771126	-2.612263	-1.834484
N	4.453785	-3.344421	-0.716884
C	6.621303	-4.269035	0.175848
C	8.568827	-3.388237	-1.001239
C	7.998205	-4.207714	-0.004684
C	9.819097	2.611204	-1.291110
C	9.755939	1.465527	-0.274765
C	11.118530	0.869839	0.130593
C	12.033736	1.900321	0.808889
C	10.925156	-0.357677	1.032870
C	5.088578	6.271821	1.627415
C	5.616708	4.880922	1.234514
C	6.963689	4.621745	1.923004
C	4.610278	3.768379	1.558757
C	1.399792	7.133809	-0.666640
O	0.715368	6.125858	0.036370
C	-3.300456	-6.808455	4.627014
C	-2.461525	-5.566121	4.413690
C	-2.200723	-5.072324	3.129505
C	-1.872040	-4.885765	5.491202
C	-1.375982	-3.966942	2.912612
C	1.025518	-7.913727	5.709636
C	-1.040282	-3.785746	5.295771
C	-0.766365	-3.319737	3.998563
C	2.215590	-7.442387	6.558095
C	2.668713	-6.037902	6.113618
O	0.073123	-2.265555	3.876151
C	3.355839	-8.470761	6.512304
C	3.721106	-5.380865	7.013046
C	-8.849143	-1.898407	-2.595206
C	-7.955218	-3.144254	-2.683758
C	-8.449078	-4.232143	-1.709382
C	-6.484658	-2.769628	-2.442965
C	-7.722405	-5.576684	-1.820149
C	-6.215007	-4.344685	4.403490
C	-6.630429	-3.299031	3.395925
C	-7.985814	-3.001497	3.188515
C	-5.674731	-2.595498	2.653132
C	-8.375763	-2.024800	2.273221
C	-6.059573	-1.615765	1.734716
C	-7.410972	-1.324768	1.543460
C	4.052675	-7.941668	1.259018
C	3.050916	-6.858955	0.931409
C	2.965630	-5.686684	1.691771
C	2.184779	-6.977647	-0.165545
C	2.065691	-4.664534	1.375448
C	-4.170768	7.429320	3.513554
C	1.280189	-5.975160	-0.499457
C	-2.673415	7.708605	3.325687
C	1.208221	-4.800044	0.267794
C	-2.012881	6.835205	2.251527
O	0.311067	-3.852586	-0.086233
O	-2.232365	5.569081	2.339534
O	-1.308472	7.383990	1.375714
C	-3.789203	4.330399	5.730626
C	-2.284669	4.253532	6.062556
O	-1.903090	3.958724	7.197477
C	-4.610590	3.317252	6.536791
C	-4.367647	1.836583	6.185623
C	-5.085339	0.926451	7.192762
C	-4.795756	1.492445	4.751214
N	-1.420373	4.554508	5.057056
C	0.025512	4.616660	5.313071
C	0.828139	5.187750	4.142121
C	2.239172	5.555109	4.622210
C	0.878205	4.219199	2.951824
C	-4.246930	5.236607	-0.315718
C	-3.029809	4.516548	-0.763509
C	-2.739699	3.870316	-1.929864
N	-1.910625	4.416918	0.039176
C	-0.967708	3.738892	-0.610257
N	-1.449786	3.393621	-1.809997
C	-5.506933	6.022572	-5.201750
C	-5.349835	4.560149	-4.845332
C	-4.363958	3.771478	-5.457095
C	-6.183049	3.956937	-3.893127
C	-4.209879	2.425511	-5.119299
C	-6.035411	2.610289	-3.554453
C	-5.044728	1.840202	-4.164302
O	0.790816	-1.716108	1.278436
H	3.208069	0.975912	-5.316784
H	1.951197	1.849536	-6.205574
H	1.812923	-3.028428	-3.772784
O	-0.623802	2.051407	-4.105589
H	0.512260	-2.327030	-2.815770
H	1.455819	-5.150239	-5.034969
H	-1.568470	-3.569087	-2.430229
H	0.255242	-7.312381	-5.125185
H	-2.787704	-5.718313	-2.536297
H	-1.885392	-7.602352	-3.888097
H	0.555247	-2.509081	-5.882966
H	-3.367201	-4.239448	-7.772834
H	-3.526312	-4.463572	-6.022973
H	-4.068698	-1.888007	-7.595711
H	-5.166454	-2.677796	-6.455398
H	-3.505771	-0.622999	-5.624820
H	-3.835840	-1.984101	-4.548949
H	-1.185583	-4.008405	-6.155875
H	1.939345	2.530119	-3.738836
H	1.311135	3.593807	-2.488270
H	3.494616	3.788022	-1.407198
H	6.146477	-1.379655	-4.172862
H	4.438902	-1.019532	-4.057499
H	3.103983	-2.191624	-1.916838
H	8.223384	-1.985946	-2.599185
H	9.648886	-3.367605	-1.118281
H	6.177641	-4.900295	0.940050
H	8.646796	-4.801808	0.633033
H	6.360761	0.403381	-2.172630
H	5.794071	4.874443	0.147210
H	7.365248	3.644733	1.636024
H	7.706519	5.381676	1.656117
H	6.853136	4.629169	3.014379
H	4.979070	2.797585	1.212312
H	3.637177	3.943857	1.091555
H	4.445109	3.699918	2.640519
H	4.777221	6.283512	2.674939
H	1.875401	-7.364959	7.602947
H	-0.038840	6.546893	0.523102
H	3.747528	-8.569535	5.491851
H	-3.975975	-6.984323	3.783842
H	-3.910812	-6.734312	5.533983
H	4.190672	-8.192739	7.163438
H	-2.641726	-5.568635	2.267607
H	3.006275	-9.460287	6.828243
H	-2.064908	-5.225651	6.507029
H	3.050340	-6.099299	5.084403
H	-1.187588	-3.627458	1.900411
H	1.786901	-5.387324	6.063179
H	-0.588637	-3.268698	6.136732
H	3.367024	-5.309796	8.048583
H	0.267914	-2.041050	2.937662
H	4.663281	-5.939188	7.023696
H	3.946460	-4.365353	6.672058
H	1.308601	-7.998445	4.653528
H	-8.040638	-3.547931	-3.705105
H	-5.811391	-3.616834	-2.605884
H	-6.171722	-1.965333	-3.119515
H	-6.334874	-2.419781	-1.414950
H	-8.362471	-3.851938	-0.682390
H	-9.521449	-4.393127	-1.886055
H	-7.775396	-5.974800	-2.840819
H	-6.665296	-5.493721	-1.549714
H	-8.170475	-6.319462	-1.152017
H	-8.800946	-1.458239	-1.591861
H	-5.133955	-4.505314	4.388969
H	-6.706762	-5.304598	4.207410
H	-8.742297	-3.539918	3.755560
H	-4.619842	-2.815977	2.794520
H	-9.431028	-1.805426	2.133078
H	-5.297334	-1.080848	1.176824
H	-7.711562	-0.553788	0.839040
H	-2.492626	8.756557	3.071991
H	-2.149007	7.505613	4.268844
H	3.656157	-8.937148	1.032334
H	-4.735851	7.686248	2.609705
H	4.326027	-7.925758	2.319094
H	-4.365946	3.469009	7.593285
H	-5.679667	3.543601	6.413214
H	3.610263	-5.563627	2.559858
H	2.220675	-7.878089	-0.775605
H	-3.289580	1.650741	6.278911
H	2.000018	-3.771706	1.989569
H	-4.894858	-0.131092	6.979360
H	0.615526	-6.083448	-1.349508
H	-4.752118	1.129142	8.216277
H	0.417475	-3.028691	0.494620
H	-6.171818	1.080842	7.157618
H	-4.616743	0.435690	4.526462
H	-4.247773	2.084199	4.010595
H	-5.866937	1.683468	4.605404
H	-4.118447	5.344892	5.990126
H	0.341420	6.114461	3.810108
H	2.791287	6.077918	3.838685
H	2.800138	4.658108	4.914995
H	2.199838	6.222139	5.490727
H	1.326578	4.697057	2.076829
H	1.467265	3.328765	3.206648
H	-0.126101	3.890092	2.668818
H	0.392949	3.611212	5.563758
H	-5.052267	5.108802	-1.043026
H	-4.589294	4.869513	0.656432
H	-3.333908	3.696094	-2.810402
H	0.018503	3.483551	-0.254870
H	-5.332469	6.149974	-6.277333
H	-6.545278	6.325794	-5.021542
H	-6.962571	4.548519	-3.418821
H	-3.716820	4.217514	-6.208933
H	-6.694633	2.163502	-2.815839
H	-3.439804	1.827152	-5.598846
H	-4.920032	0.795633	-3.897344
H	10.379533	2.313424	-2.186045
H	10.304475	3.501487	-0.878032
H	9.136825	0.658246	-0.687025
H	9.235127	1.808373	0.631150
H	11.617804	0.534752	-0.792237
H	12.991876	1.449773	1.092369
H	12.248699	2.751407	0.155518
H	11.568778	2.291151	1.722826
H	11.885078	-0.823488	1.284603
H	10.296219	-1.115605	0.553631
H	10.438739	-0.075067	1.974813
H	-0.809576	1.087367	-4.030651
H	-1.242922	2.367511	-4.774603
H	5.900633	7.010288	1.535264
H	-4.581923	8.020421	4.339121
H	-9.897523	-2.141801	-2.800949
H	3.167803	0.927643	-7.107637
H	6.340113	0.890365	-3.854988
H	3.550639	4.331644	-3.073504
H	0.663100	-8.894730	6.038348
H	-6.493438	-4.044905	5.421129
H	0.180521	5.224394	6.212834
H	-2.674966	-7.704718	4.733244
H	4.980606	-7.826220	0.683260
H	-1.880274	4.868505	1.028428
H	0.194323	-7.203329	5.768558
H	-1.772489	4.832196	4.139594
H	1.512928	-0.313439	-4.139423
H	3.656491	0.815113	-2.730042
H	8.813349	2.900247	-1.613360
H	3.786717	-3.825966	-0.126580
C	0.598996	0.135787	0.638640
C	1.456944	-0.989848	0.270993
H	2.525726	-0.815515	0.442376
H	0.925018	0.691514	1.510486
C	-0.816647	0.257114	0.290124
C	-1.694907	0.837198	1.220141
C	-1.317019	-0.166728	-0.951318
C	-3.050365	0.971760	0.926058
H	-1.312463	1.171940	2.180072
C	-2.668102	-0.021603	-1.248251
H	-0.638667	-0.552734	-1.701605
C	-3.537809	0.543756	-0.310626
H	-3.719949	1.415049	1.656409
H	-3.023855	-0.327968	-2.225635
H	-4.589653	0.670529	-0.552390
H	1.306167	-1.381168	-0.736454
H	-4.047933	6.307788	-0.199252
H	-4.341996	6.372897	3.724657
H	-3.944792	4.223863	4.651741
H	-8.536558	-1.130236	-3.311415
H	-1.379483	-2.854883	-7.492388
C	-4.567573	6.968588	-4.430336
H	-3.517475	6.717873	-4.610533
H	-4.726241	8.006678	-4.739132
H	-4.740311	6.904868	-3.351671
H	3.899922	6.358670	-0.132623
H	1.300325	8.667260	0.845402
H	2.570101	8.926131	-0.354827
H	0.731100	7.677912	-1.355337
H	2.143614	6.633505	-1.304093
H	-0.983128	2.840497	-2.547401