290			
			
C	1.833294	8.144957	-0.500237
C	2.743445	7.778972	0.682991
O	2.683132	8.388159	1.749527
N	3.666024	6.806282	0.463755
C	4.701213	6.535736	1.440129
C	5.313594	5.135612	1.261648
C	6.576986	4.999909	2.121900
C	4.304759	4.025288	1.586517
C	3.180996	0.183203	-5.864601
C	2.316767	-1.086979	-5.884502
O	2.125611	-1.730620	-6.916552
N	1.775651	-1.434997	-4.679292
C	0.920252	-2.596670	-4.511550
C	-0.570918	-2.209916	-4.579755
O	-1.010203	-1.262599	-3.905105
C	1.224371	-3.281919	-3.154143
C	0.445363	-4.558350	-2.922243
C	0.956206	-5.796255	-3.340311
C	-0.809765	-4.535284	-2.295448
C	0.235151	-6.975857	-3.143506
C	-1.534540	-5.711997	-2.097968
C	-1.014588	-6.937054	-2.521926
N	-1.401562	-2.944126	-5.358524
C	-1.083280	-4.133969	-6.186006
C	-2.466022	-4.687503	-6.555044
C	-3.353158	-3.434110	-6.603619
C	-2.828733	-2.588041	-5.437483
C	3.572445	3.163871	-2.393837
C	4.894495	2.371455	-2.345676
O	5.951949	2.970014	-2.129409
C	2.280312	2.567990	-2.987219
C	1.700116	1.304793	-2.334304
O	1.229674	1.587108	-1.050566
O	2.231698	0.167087	-2.513901
N	4.821391	1.028204	-2.520364
C	5.973720	0.151700	-2.359611
C	5.654216	-1.297763	-2.821600
C	5.829025	-2.333399	-1.747354
C	4.835646	-2.923750	-1.005269
C	7.072633	-2.874620	-1.256217
N	5.381170	-3.807251	-0.091776
C	6.751727	-3.793698	-0.215774
C	8.423801	-2.675351	-1.589659
C	7.735878	-4.500948	0.483567
C	9.404287	-3.375663	-0.896174
C	9.062553	-4.279170	0.131744
C	9.790994	2.673957	-0.424396
C	9.733134	1.438822	0.481298
C	11.078439	1.009496	1.098990
C	11.674116	2.086452	2.017918
C	10.925711	-0.320448	1.851850
C	1.247582	6.966070	-1.282672
O	0.556382	6.071295	-0.451702
C	-3.789674	-6.297500	5.138563
C	-2.995909	-5.281030	4.349273
C	-2.379465	-5.626874	3.140359
C	-2.831802	-3.965077	4.804867
C	-1.625786	-4.707885	2.412987
C	-2.085080	-3.029019	4.090048
C	-1.471713	-3.399189	2.888129
O	-0.749985	-2.456712	2.219525
C	0.396494	-7.128720	6.838849
C	1.237793	-5.934954	7.313796
C	1.132776	-4.766286	6.314341
C	2.690239	-6.366628	7.565462
C	1.778727	-3.457226	6.780291
C	-8.532297	-2.510053	-3.241370
C	-7.838202	-3.850296	-2.957839
C	-8.674550	-4.694511	-1.975370
C	-6.404919	-3.619532	-2.454964
C	-8.177056	-6.129899	-1.772991
C	-6.693747	-3.968531	4.268526
C	-7.156505	-3.058395	3.154490
C	-8.510488	-2.978767	2.803783
C	-6.235666	-2.287616	2.430457
C	-8.937335	-2.156041	1.759876
C	-6.658041	-1.462370	1.387352
C	-8.011115	-1.392274	1.047817
C	3.920535	-7.633066	2.801842
C	3.266823	-6.427247	2.175871
C	3.428458	-5.146020	2.718178
C	2.447586	-6.558729	1.046141
C	2.793002	-4.031343	2.164402
C	1.807508	-5.462386	0.477086
C	1.977125	-4.191406	1.037810
O	1.327025	-3.138151	0.451505
C	-4.730930	7.652253	2.097666
C	-3.249268	8.043140	2.079227
C	-2.375786	7.060286	1.284832
O	-2.591719	5.815658	1.498351
O	-1.514350	7.527560	0.503560
C	-4.564236	4.872479	4.726589
C	-3.096962	4.811781	5.210869
O	-2.835472	4.593981	6.397496
C	-5.501556	4.046477	5.613494
C	-5.361629	2.517900	5.477339
C	-6.116408	1.808368	6.610703
C	-5.843491	2.007797	4.111026
N	-2.130962	5.049652	4.283710
C	-0.731594	5.214472	4.710779
C	0.196701	5.752205	3.620228
C	1.492084	6.272841	4.260131
C	0.488566	4.690222	2.554206
C	-4.329275	4.989364	-1.398840
C	-3.061670	4.246140	-1.595747
N	-2.028496	4.350080	-0.694116
C	-2.619474	3.403510	-2.581907
C	-1.013521	3.595509	-1.140168
N	-1.333756	2.998620	-2.283914
C	-4.194406	6.174454	-5.712661
C	-5.024389	5.110185	-6.455971
C	-4.863724	3.704110	-5.916348
C	-3.732633	2.937142	-6.231657
C	-5.832480	3.139274	-5.075955
C	-3.565636	1.653136	-5.711298
C	-5.675178	1.852108	-4.558084
C	-4.538120	1.106774	-4.870528
O	0.193867	1.295919	-3.325807
H	3.655622	0.363583	-4.900356
H	2.544927	1.042442	-6.102816
H	2.298734	-3.490320	-3.133955
H	1.019355	-2.568889	-2.350940
H	1.934164	-5.834567	-3.814265
H	-1.215145	-3.586213	-1.956852
H	0.653051	-7.924387	-3.469519
H	-2.502398	-5.671496	-1.605869
H	-1.575483	-7.853692	-2.363097
H	1.161791	-3.276443	-5.331658
H	-2.447296	-5.245213	-7.495277
H	-2.813163	-5.364971	-5.766943
H	-3.202833	-2.902102	-7.549785
H	-4.419608	-3.655287	-6.509597
H	-2.939360	-1.512826	-5.591571
H	-3.328130	-2.838545	-4.492204
H	-0.488254	-4.854352	-5.621947
H	2.422013	2.320243	-4.040454
H	1.514860	3.346628	-2.943822
H	3.380552	3.475497	-1.359394
H	6.288388	-1.550205	-3.679876
H	4.625208	-1.342097	-3.192072
H	3.765500	-2.777345	-1.051259
H	8.698894	-1.981570	-2.379633
H	10.450620	-3.229322	-1.148919
H	7.472301	-5.197184	1.274963
H	9.850013	-4.811611	0.657660
H	6.298750	0.143662	-1.310943
H	9.334141	0.594135	-0.095196
H	9.011406	1.614106	1.292462
H	11.785144	0.847729	0.269811
H	12.624929	1.753923	2.450196
H	11.862966	3.023027	1.484495
H	10.992624	2.308503	2.848838
H	11.885301	-0.664128	2.255505
H	10.530123	-1.107292	1.200681
H	10.232722	-0.211547	2.695441
H	10.056367	3.579574	0.130726
H	-0.237110	6.548578	-0.085684
H	-4.388828	-6.937508	4.481889
H	-4.470404	-5.812166	5.844049
H	-2.489031	-6.637954	2.754517
H	-3.296413	-3.662195	5.740485
H	-1.154744	-5.003740	1.479389
H	-1.969345	-2.010600	4.446264
H	-0.322905	-2.847578	1.434384
H	0.819655	-5.590134	8.272535
H	2.737122	-7.198486	8.277446
H	3.162351	-6.702014	6.633195
H	3.297397	-5.551603	7.970998
H	1.576325	-5.073587	5.356799
H	0.071876	-4.580635	6.104906
H	1.358178	-3.125239	7.737039
H	2.861783	-3.552547	6.911336
H	1.607407	-2.658904	6.051383
H	-7.779761	-4.405737	-3.907216
H	-5.857308	-4.558650	-2.328024
H	-5.837306	-3.000775	-3.159325
H	-6.410425	-3.103587	-1.487358
H	-8.707991	-4.178655	-1.005817
H	-9.710182	-4.727467	-2.340437
H	-8.121807	-6.668816	-2.726548
H	-7.182055	-6.157210	-1.318138
H	-8.850720	-6.689438	-1.115423
H	-8.621985	-1.917468	-2.322832
H	-5.831534	-3.547868	4.792107
H	-6.384384	-4.945522	3.877798
H	-9.239625	-3.564388	3.359148
H	-5.180387	-2.332362	2.687742
H	-9.993737	-2.103816	1.510639
H	-5.930008	-0.865940	0.845486
H	-8.340255	-0.739175	0.244700
H	3.236887	-8.149961	3.487680
H	4.807705	-7.355579	3.379351
H	4.058718	-5.010110	3.593762
H	2.310928	-7.539564	0.597117
H	2.924742	-3.044319	2.596934
H	1.186684	-5.571850	-0.404684
H	1.600772	-2.281924	0.882134
H	-3.101931	9.046888	1.670799
H	-2.863932	8.054834	3.108194
H	-5.164581	7.710983	1.092407
H	-5.292451	4.326181	6.651114
H	-6.542914	4.329001	5.401838
H	-4.295538	2.276323	5.585587
H	-5.718098	0.922554	4.023767
H	-5.298956	2.473089	3.283058
H	-6.909676	2.226444	3.968625
H	-6.010837	0.719567	6.541631
H	-5.742547	2.122639	7.590892
H	-7.189223	2.038375	6.571817
H	-4.864246	5.927290	4.769796
H	-0.293538	6.601964	3.128883
H	1.048254	5.111347	1.716360
H	1.069120	3.865919	2.992314
H	-0.440701	4.281463	2.149247
H	2.124007	6.758836	3.512989
H	2.057850	5.454386	4.725474
H	1.278897	7.013088	5.039888
H	-0.349731	4.252430	5.082277
H	-5.072476	4.678463	-2.138573
H	-4.742030	4.817835	-0.399104
H	-3.127080	3.081224	-3.476096
H	-0.537248	1.995790	-2.877872
H	-0.068037	3.509612	-0.637752
H	-4.742946	5.121661	-7.517086
H	-6.083953	5.390551	-6.417429
H	-2.967876	3.355964	-6.881526
H	-6.719668	3.716069	-4.824436
H	-2.665806	1.088700	-5.938542
H	-6.436383	1.436910	-3.903382
H	-4.397939	0.116928	-4.447204
H	-3.126026	5.941447	-5.753233
H	-0.151152	0.383002	-3.411066
H	4.850337	-4.320733	0.595960
H	3.896020	0.589757	-2.538436
H	1.916164	-0.815782	-3.870666
H	-2.080545	4.915665	0.187936
H	-2.381829	5.284188	3.316917
H	-4.182504	6.072082	-1.497768
H	-4.476440	6.227536	-4.656803
H	-4.345057	7.163488	-6.157883
H	0.425238	-7.952603	7.561096
H	-0.650724	-6.843020	6.692057
H	0.769412	-7.512601	5.881202
H	-3.135635	-6.959866	5.720628
H	4.228075	-8.361870	2.044829
H	8.820242	2.849463	-0.900040
H	10.533468	2.544022	-1.221564
H	-5.312625	8.316224	2.747606
H	-0.727403	5.886422	5.578256
H	-7.490237	-4.143689	4.998441
H	-7.968702	-1.913143	-3.966782
H	-9.541749	-2.658640	-3.641046
H	3.935678	0.092623	-6.647714
H	-0.513280	-3.828219	-7.072115
H	6.806419	0.576770	-2.929342
C	0.885000	0.438134	-0.241306
C	1.972965	0.304676	0.827828
O	1.737597	-0.825420	1.688017
H	0.935091	-0.446629	-0.877726
H	2.059712	1.221539	1.421200
H	2.931995	0.122030	0.339828
C	-0.518772	0.560743	0.320496
C	-0.796914	1.312177	1.470366
C	-1.573028	-0.101231	-0.322940
C	-2.097870	1.402712	1.967576
H	-0.004895	1.858208	1.972875
C	-2.873300	-0.010392	0.170668
H	-1.376888	-0.668520	-1.229463
C	-3.138662	0.738232	1.318551
H	-2.295822	2.009719	2.846090
H	-3.679921	-0.522812	-0.346662
H	-4.151515	0.811879	1.703208
H	-4.850730	6.626592	2.447395
H	-4.624777	4.585412	3.671156
H	3.809414	4.081367	-2.941614
H	5.614601	5.019258	0.208958
H	6.340427	5.117084	3.186812
H	7.035814	4.014977	1.988548
H	7.325139	5.756258	1.859959
H	4.036370	4.043666	2.649700
H	3.379003	4.142862	1.015868
H	4.726901	3.040696	1.359157
H	5.495855	7.295182	1.369311
H	4.261371	6.639782	2.435547
H	3.723064	6.364568	-0.441322
H	1.018390	8.736756	-0.075601
H	2.404222	8.800175	-1.174881
H	0.605221	7.366614	-2.084973
H	2.041562	6.396877	-1.789476
H	0.862492	-0.731877	2.103495