290			
			
C	3.803635	7.482302	0.331707
C	2.598004	0.522521	-6.308522
C	1.435310	-0.484324	-6.395624
C	4.716487	6.715476	1.301717
O	4.924946	7.123561	2.442606
O	0.890118	-0.763589	-7.463536
N	1.051923	-1.030317	-5.201850
N	5.330016	5.605058	0.813454
C	-0.117433	-1.882037	-5.076091
C	-1.408818	-1.038981	-5.028819
O	-1.467373	-0.017088	-4.319605
C	0.013498	-2.777977	-3.819171
C	-1.017855	-3.883874	-3.756338
C	-0.832496	-5.069449	-4.484966
C	-2.185138	-3.746546	-2.993329
C	-1.790129	-6.084831	-4.462055
C	-3.146290	-4.758919	-2.971208
C	-2.954759	-5.929516	-3.707109
N	-2.483042	-1.439089	-5.746595
C	-2.600119	-2.606679	-6.654821
C	-4.098771	-2.650781	-6.979421
C	-4.520488	-1.174751	-6.922410
C	-3.710712	-0.623817	-5.743132
C	4.066706	2.665019	-2.521992
C	5.128270	1.611543	-2.910840
O	6.291014	1.963906	-3.132673
C	2.640029	2.670267	-3.106755
C	1.681640	1.483884	-2.958321
O	1.295835	1.560535	-0.993957
O	2.042092	0.283791	-3.086062
N	4.744469	0.309798	-2.897633
C	5.651747	-0.761800	-3.289680
C	4.928704	-2.106686	-3.502377
C	4.792745	-2.964693	-2.276852
C	3.656748	-3.241959	-1.557626
C	5.858849	-3.705783	-1.644587
C	5.290268	-4.408027	-0.544365
C	7.230322	-3.864891	-1.910661
N	3.951399	-4.092620	-0.506615
C	6.048014	-5.249851	0.276924
C	7.986986	-4.702317	-1.097953
C	7.400913	-5.387143	-0.013180
C	10.150254	0.456049	-1.570170
C	9.860392	-0.541943	-0.443634
C	11.092901	-1.281863	0.112393
C	12.121063	-0.328336	0.739325
C	10.666288	-2.355185	1.124659
C	6.380478	4.952177	1.571369
C	6.635224	3.513681	1.091786
C	7.916660	2.967032	1.735193
C	5.439922	2.594394	1.377484
C	2.832433	6.645062	-0.505512
O	1.927391	5.924619	0.290772
C	-4.544895	-6.120718	4.485857
C	-3.446051	-5.104684	4.247749
C	-3.103836	-4.677558	2.958398
C	-2.705504	-4.575452	5.316762
C	-2.063840	-3.772975	2.729145
C	-0.532602	-8.155921	5.417115
C	-1.665820	-3.673069	5.109553
C	-1.331646	-3.266264	3.809714
C	0.436287	-7.861456	6.571569
C	1.230350	-6.570014	6.293380
O	-0.289657	-2.397975	3.681321
C	1.348455	-9.069061	6.834205
C	2.096803	-6.077359	7.457472
C	-9.075203	0.075971	-2.452030
C	-8.594657	-1.272334	-3.008815
C	-9.295772	-2.437856	-2.283055
C	-7.063567	-1.370478	-2.930113
C	-9.021854	-3.825674	-2.872294
C	-6.868567	-3.086089	4.406309
C	-7.522990	-2.027301	3.549274
C	-8.601131	-2.333706	2.710851
C	-7.055676	-0.704158	3.569611
C	-9.197988	-1.352048	1.915619
C	-7.644129	0.278943	2.775234
C	-8.720580	-0.041659	1.943934
C	2.317021	-8.695019	0.882634
C	1.715442	-7.333185	0.608872
C	1.735294	-6.303162	1.555377
C	1.120971	-7.053695	-0.631935
C	1.203203	-5.034728	1.281039
C	-2.371214	8.001720	3.748750
C	0.591490	-5.804573	-0.926844
C	-1.025381	8.523078	3.241903
C	0.637008	-4.774032	0.024835
C	-0.321433	7.485831	2.367886
O	0.121518	-3.568355	-0.340702
O	-0.493643	6.260544	2.717060
O	0.335009	7.860806	1.373069
C	-2.612086	4.827332	5.877025
C	-1.169069	4.319465	6.095742
O	-0.871827	3.706467	7.124779
C	-3.650356	3.944945	6.580420
C	-3.761609	2.500042	6.055628
C	-4.726952	1.691235	6.933792
C	-4.188591	2.432826	4.582095
N	-0.257548	4.598176	5.125746
C	1.165019	4.305317	5.358027
C	2.088473	4.780248	4.235221
C	3.517717	4.944353	4.769380
C	2.038039	3.817754	3.042370
C	-3.001624	5.992306	-0.129646
C	-1.971333	4.918467	-0.259786
C	-1.790729	3.919726	-1.184011
N	-0.921443	4.819127	0.633622
C	-0.124228	3.829372	0.248906
N	-0.629308	3.260206	-0.838762
C	-4.174149	7.176089	-4.956907
C	-4.391347	5.740998	-4.518437
C	-3.480941	4.734745	-4.875276
C	-5.486822	5.388408	-3.719021
C	-3.652392	3.419146	-4.441239
C	-5.668742	4.073297	-3.285200
C	-4.750800	3.085406	-3.643134
O	0.759447	-1.347483	1.252096
H	3.207866	0.391501	-5.414783
H	2.176996	1.533348	-6.296813
H	1.019305	-3.209878	-3.848166
O	0.462194	1.867272	-3.437613
H	-0.043628	-2.160038	-2.919333
H	0.074951	-5.196791	-5.070998
H	-2.329567	-2.849924	-2.397964
H	-1.624299	-6.997058	-5.028712
H	-4.040691	-4.636065	-2.366755
H	-3.700284	-6.719325	-3.683612
H	-0.142532	-2.514904	-5.967260
H	-4.295169	-3.122705	-7.945935
H	-4.625485	-3.225849	-6.209637
H	-4.227337	-0.664048	-7.846581
H	-5.596561	-1.035715	-6.788619
H	-3.458260	0.434143	-5.839884
H	-4.242233	-0.749774	-4.790599
H	-2.254426	-3.519391	-6.169162
H	2.693803	2.827542	-4.192911
H	2.123003	3.544175	-2.701777
H	3.968748	2.613812	-1.429628
H	5.502307	-2.668127	-4.251562
H	3.945873	-1.926083	-3.952813
H	2.643959	-2.894364	-1.706836
H	7.694047	-3.346394	-2.745454
H	9.045229	-4.837873	-1.302900
H	5.592555	-5.780403	1.108412
H	8.016486	-6.034837	0.604708
H	6.443360	-0.878330	-2.538547
H	6.794270	3.538710	0.002294
H	8.120656	1.948068	1.391282
H	8.787168	3.585137	1.489376
H	7.823933	2.937772	2.827891
H	5.599536	1.600747	0.946296
H	4.510974	2.998339	0.965707
H	5.294266	2.476005	2.458002
H	6.087826	4.956817	2.624811
H	-0.163927	-7.690348	7.478981
H	1.324852	6.586378	0.719682
H	1.987120	-9.269680	5.964553
H	-5.236684	-6.165401	3.639319
H	-5.126593	-5.880929	5.382357
H	2.002241	-8.913306	7.697979
H	-3.655068	-5.063803	2.104217
H	0.759004	-9.972796	7.025633
H	-2.948751	-4.873383	6.334470
H	1.863089	-6.728429	5.407504
H	-1.818143	-3.472567	1.714523
H	0.520533	-5.780403	6.017923
H	-1.104679	-3.261991	5.942713
H	1.493730	-5.921977	8.360001
H	-0.178470	-2.071121	2.767410
H	2.892238	-6.786486	7.709151
H	2.574600	-5.123242	7.212967
H	0.014024	-8.320841	4.480347
H	-8.882544	-1.321102	-4.070652
H	-6.682572	-2.285564	-3.393908
H	-6.592037	-0.521820	-3.438438
H	-6.726858	-1.361363	-1.886269
H	-9.000687	-2.422915	-1.224357
H	-10.378704	-2.253841	-2.298782
H	-9.298395	-3.867362	-3.932599
H	-7.966009	-4.102982	-2.794458
H	-9.599880	-4.595030	-2.349638
H	-8.809432	0.175875	-1.392702
H	-5.837467	-3.276168	4.087468
H	-7.412882	-4.033397	4.357203
H	-8.980264	-3.352539	2.682815
H	-6.224752	-0.441625	4.219931
H	-10.038527	-1.612079	1.277846
H	-7.264210	1.296064	2.809809
H	-9.185946	0.724799	1.330621
H	-1.131883	9.445730	2.663655
H	-0.368982	8.756071	4.091259
H	1.625211	-9.500129	0.611311
H	-3.029324	7.731383	2.915572
H	2.568717	-8.814259	1.940663
H	-3.382739	3.904117	7.641326
H	-4.634827	4.430168	6.510293
H	2.166333	-6.484965	2.537252
H	1.079869	-7.832878	-1.389872
H	-2.766510	2.047185	6.147988
H	1.201426	-4.267408	2.050931
H	-4.778406	0.644639	6.611717
H	0.140763	-5.602052	-1.891240
H	-4.411435	1.701833	7.982604
H	0.341926	-2.848637	0.289281
H	-5.743511	2.103382	6.886674
H	-4.273398	1.392206	4.247892
H	-3.470798	2.925272	3.919523
H	-5.165961	2.911171	4.432381
H	-2.661620	5.840635	6.296219
H	1.739273	5.761200	3.894044
H	4.174759	5.360270	4.001998
H	3.927034	3.981360	5.102679
H	3.543331	5.629232	5.624729
H	2.488322	4.264207	2.152046
H	2.563167	2.883222	3.278301
H	0.999667	3.561809	2.811290
H	1.280852	3.224931	5.517138
H	-3.727673	5.923491	-0.943419
H	-3.542779	5.915141	0.820060
H	-2.380082	3.643412	-2.041841
H	0.807755	3.543626	0.698287
H	-3.945347	7.198417	-6.030207
H	-5.104619	7.740963	-4.826787
H	-6.205579	6.153601	-3.434499
H	-2.622299	4.985084	-5.493681
H	-6.524649	3.823054	-2.664279
H	-2.921919	2.657963	-4.702652
H	-4.879022	2.065463	-3.292877
H	10.679071	-0.028623	-2.400116
H	10.768364	1.292905	-1.228559
H	9.143842	-1.290404	-0.805475
H	9.357267	-0.022571	0.385093
H	11.580130	-1.791631	-0.733830
H	12.978062	-0.881896	1.139999
H	12.505511	0.397082	0.015859
H	11.673171	0.233519	1.568625
H	11.526676	-2.933412	1.481408
H	9.944491	-3.052533	0.686832
H	10.190794	-1.896702	2.000722
H	-0.083501	1.078674	-3.652718
H	7.312992	5.534246	1.504714
H	-2.891084	8.758236	4.348843
H	-10.163047	0.178148	-2.534871
H	3.207074	0.421421	-7.208691
H	6.158608	-0.461199	-4.215696
H	4.531558	3.624823	-2.760174
H	-1.126426	-9.055600	5.615612
H	-6.826002	-2.776483	5.456486
H	1.455352	4.772865	6.309202
H	-4.136290	-7.129840	4.626781
H	3.236708	-8.851076	0.305439
H	-0.721980	5.438378	1.493568
H	-1.222604	-7.322541	5.250428
H	-0.494888	5.207412	4.340467
H	1.429220	-0.609787	-4.340866
H	3.742478	0.114861	-2.821470
H	9.220615	0.874459	-1.970143
H	3.262255	-4.521575	0.095475
C	0.440685	-0.000812	0.720591
C	1.446381	0.320630	-0.408766
H	2.451244	0.204815	0.058979
H	0.586447	0.703435	1.549561
C	-1.031115	-0.042015	0.375310
C	-1.970711	-0.045941	1.417641
C	-1.491072	-0.108354	-0.943457
C	-3.336861	-0.124201	1.149121
H	-1.626253	0.005187	2.447784
C	-2.859676	-0.163698	-1.217039
H	-0.789316	-0.083825	-1.766025
C	-3.784692	-0.178482	-0.172475
H	-4.051747	-0.137870	1.966347
H	-3.182744	-0.182783	-2.253195
H	-4.849988	-0.221969	-0.382442
H	1.380853	-0.499932	-1.147342
H	-2.531811	6.981514	-0.162605
H	-2.232191	7.113462	4.361236
H	-2.819600	4.928127	4.806466
H	-8.618218	0.914606	-2.988795
H	-1.994438	-2.433783	-7.553315
C	-3.036834	7.876115	-4.189533
H	-2.089012	7.344323	-4.316232
H	-2.899082	8.902675	-4.545126
H	-3.251661	7.913923	-3.117070
H	5.200097	5.347105	-0.153458
H	3.236552	8.189702	0.941791
H	4.452832	8.069610	-0.335420
H	2.312943	7.319955	-1.206242
H	3.372360	5.917433	-1.128933
H	-0.101867	2.431434	-1.206182
H	1.706459	-1.348423	1.464303