290			
			
C	-1.177116	8.298832	-0.249315
C	-3.051386	0.986909	5.834073
C	-2.267588	-0.330951	5.997048
C	-2.108878	7.882924	-1.398713
O	-1.977178	8.317048	-2.539474
O	-2.003755	-0.808885	7.099935
N	-1.881731	-0.916293	4.822740
N	-3.123328	7.035694	-1.071622
C	-0.977850	-2.051427	4.764858
C	0.479172	-1.598820	5.008769
O	0.915918	-0.567760	4.464301
C	-1.132201	-2.744883	3.385821
C	-0.465730	-4.100071	3.279159
C	-1.077153	-5.238015	3.828103
C	0.765605	-4.255557	2.628384
C	-0.472237	-6.492193	3.740087
C	1.374003	-5.510071	2.538110
C	0.759133	-6.632068	3.095804
N	1.278074	-2.346426	5.804158
C	0.918938	-3.551415	6.590672
C	2.267243	-4.025282	7.147743
C	3.061386	-2.721242	7.315731
C	2.655654	-1.902597	6.084343
C	-3.242415	3.644772	2.094509
C	-4.624766	2.953887	2.111397
O	-5.619906	3.574636	1.722469
C	-2.085507	3.214194	3.001991
C	-1.438362	1.835931	2.834964
O	-0.789440	2.088993	1.057326
O	-2.118596	0.771851	2.774891
N	-4.662784	1.656118	2.508576
C	-5.838061	0.807083	2.328321
C	-5.611226	-0.596959	2.952511
C	-5.986279	-1.734049	2.043818
C	-5.115231	-2.515706	1.325358
C	-7.310057	-2.195173	1.703443
C	-7.159351	-3.266306	0.774821
C	-8.606752	-1.811743	2.088265
N	-5.809132	-3.442076	0.570068
C	-8.257516	-3.944920	0.235485
C	-9.700122	-2.482767	1.552431
C	-9.526234	-3.539439	0.634393
C	-9.478977	3.380033	0.137408
C	-9.593184	2.013101	-0.546419
C	-11.000179	1.649461	-1.060174
C	-11.509081	2.629174	-2.128132
C	-11.024123	0.209175	-1.592737
C	-4.143897	6.704989	-2.048290
C	-5.000984	5.512424	-1.593003
C	-6.271083	5.408338	-2.447552
C	-4.214931	4.194042	-1.616222
C	-0.467093	7.097464	0.380802
O	0.163712	6.321946	-0.604471
C	3.483133	-6.950769	-4.459882
C	2.617459	-5.760095	-4.132320
C	2.237378	-5.486882	-2.812828
C	2.126773	-4.915677	-5.138778
C	1.380615	-4.434090	-2.502685
C	-0.747986	-7.662800	-6.102564
C	1.264970	-3.860291	-4.849561
C	0.870244	-3.624061	-3.526496
C	-1.812271	-6.929079	-6.931447
C	-2.322616	-5.684874	-6.177736
O	0.009190	-2.602800	-3.287181
C	-2.947650	-7.886759	-7.322510
C	-3.253131	-4.775330	-6.987284
C	8.460039	-2.705954	3.556907
C	7.551459	-3.937034	3.424802
C	8.221123	-5.009649	2.542499
C	6.165481	-3.530494	2.901253
C	7.483728	-6.351873	2.486350
C	6.534201	-4.745718	-3.793958
C	7.000836	-3.766667	-2.741735
C	8.302059	-3.831721	-2.224112
C	6.152005	-2.754779	-2.273962
C	8.745983	-2.909257	-1.276269
C	6.590462	-1.827424	-1.325795
C	7.891207	-1.900970	-0.824354
C	-4.299995	-7.550100	-2.059917
C	-3.578183	-6.279856	-1.675190
C	-3.981429	-5.028357	-2.159528
C	-2.445473	-6.321345	-0.849282
C	-3.268577	-3.861707	-1.861812
C	5.341168	7.131688	-2.744210
C	-1.724501	-5.173040	-0.541400
C	4.039441	7.899270	-2.985579
C	-2.121993	-3.935143	-1.062435
C	2.902426	7.236732	-2.213612
O	-1.337664	-2.851911	-0.783278
O	2.841776	5.956470	-2.344325
O	2.149857	7.919953	-1.492986
C	4.993476	4.132563	-5.099773
C	3.538153	4.052242	-5.620562
O	3.290226	3.606507	-6.743225
C	5.930217	3.153526	-5.814381
C	5.682720	1.660459	-5.522973
C	6.567186	0.791651	-6.429093
C	5.909458	1.300512	-4.047489
N	2.592716	4.530512	-4.767863
C	1.191599	4.726078	-5.142586
C	0.191476	4.203831	-4.102454
C	-1.221317	4.682941	-4.462932
C	0.258017	2.678079	-3.981184
C	4.763019	4.844168	0.985415
C	3.406316	4.246678	0.852696
C	2.684419	3.421564	1.677920
N	2.602815	4.510018	-0.238627
C	1.440641	3.887996	-0.067073
N	1.459951	3.217304	1.077398
C	5.461349	5.398257	6.013733
C	5.074579	3.985596	5.612729
C	3.779382	3.505748	5.862525
C	5.961626	3.156991	4.913241
C	3.372497	2.252241	5.404968
C	5.564804	1.895319	4.461279
C	4.265781	1.442942	4.696719
O	-2.299017	-0.430034	-1.217073
H	-3.682786	1.008650	4.947130
H	-2.327677	1.804850	5.762291
H	-2.209597	-2.855203	3.221131
O	-0.265087	1.833453	3.533259
H	-0.753228	-2.075940	2.607578
H	-2.042621	-5.139310	4.319074
H	1.239594	-3.390707	2.173958
H	-0.966389	-7.360963	4.166449
H	2.326874	-5.608826	2.025282
H	1.230093	-7.608278	3.022004
H	-1.275555	-2.744346	5.556301
H	2.150656	-4.588414	8.077656
H	2.760799	-4.677351	6.418329
H	2.746630	-2.203456	8.228733
H	4.141948	-2.876602	7.373383
H	2.676105	-0.823352	6.245384
H	3.300483	-2.120840	5.222509
H	0.441277	-4.304234	5.961659
H	-2.398571	3.249434	4.053228
H	-1.286226	3.952362	2.897692
H	-2.889018	3.587094	1.058696
H	-6.162596	-0.671495	3.897694
H	-4.555193	-0.705878	3.219207
H	-4.035559	-2.481368	1.284044
H	-8.752490	-0.999320	2.795157
H	-10.705362	-2.194159	1.846174
H	-8.123955	-4.758989	-0.471690
H	-10.399042	-4.045382	0.231506
H	-6.061413	0.703068	1.258113
H	-5.314558	5.690943	-0.553375
H	-6.889766	4.565313	-2.123673
H	-6.878668	6.317561	-2.378876
H	-6.020121	5.252468	-3.504231
H	-4.764257	3.412006	-1.083808
H	-3.235132	4.308373	-1.142536
H	-4.047597	3.861402	-2.647989
H	-3.647712	6.488593	-2.999492
H	-1.333134	-6.579801	-7.859585
H	0.895801	6.876103	-0.984498
H	-3.476651	-8.245458	-6.430192
H	4.161191	-7.195073	-3.635946
H	4.093196	-6.773907	-5.351855
H	-3.684508	-7.409076	-7.975716
H	2.615088	-6.113662	-2.008006
H	-2.558469	-8.764595	-7.850785
H	2.421654	-5.089158	-6.171389
H	-2.832256	-6.008294	-5.258809
H	1.103740	-4.231838	-1.473057
H	-1.456112	-5.100175	-5.845193
H	0.887842	-3.209925	-5.632268
H	-2.770943	-4.439171	-7.913016
H	-0.237079	-2.608066	-2.341866
H	-4.186117	-5.277448	-7.264544
H	-3.520517	-3.882278	-6.413384
H	-1.174659	-8.032647	-5.161739
H	7.421418	-4.368241	4.429964
H	5.469831	-4.375034	2.879871
H	5.720105	-2.754775	3.534529
H	6.235753	-3.129520	1.883082
H	8.334663	-4.610679	1.524970
H	9.239120	-5.181371	2.918506
H	7.342280	-6.769015	3.490702
H	6.496171	-6.257283	2.024436
H	8.047941	-7.084989	1.900269
H	8.624595	-2.239134	2.578190
H	5.444017	-4.759091	-3.868881
H	6.875370	-5.763048	-3.574443
H	8.975297	-4.612622	-2.570880
H	5.136526	-2.693798	-2.656999
H	9.760790	-2.974974	-0.893049
H	5.914599	-1.048891	-0.984368
H	8.237508	-1.175874	-0.093445
H	4.118368	8.947441	-2.684449
H	3.788388	7.877685	-4.054221
H	-3.795326	-8.059950	-2.890441
H	5.623250	7.167172	-1.685061
H	-5.326945	-7.348823	-2.380352
H	5.818150	3.319093	-6.891035
H	6.969749	3.400234	-5.553427
H	-4.856669	-4.959235	-2.802051
H	-2.117774	-7.274363	-0.440794
H	4.635733	1.450607	-5.776389
H	-3.588656	-2.901963	-2.256549
H	6.381498	-0.275469	-6.262790
H	-0.854019	-5.214513	0.104698
H	6.380942	1.005157	-7.487180
H	-1.778809	-1.992240	-1.017458
H	7.631812	0.975489	-6.233043
H	5.755526	0.229790	-3.874632
H	5.228872	1.840023	-3.381583
H	6.936618	1.536711	-3.739637
H	5.338272	5.158919	-5.280984
H	0.456878	4.654505	-3.137245
H	-1.959236	4.276434	-3.764366
H	-1.504553	4.359160	-5.473130
H	-1.293103	5.774608	-4.417669
H	-0.434164	2.318706	-3.210474
H	-0.018365	2.197945	-4.928351
H	1.265641	2.342665	-3.718314
H	1.045838	4.227311	-6.105762
H	5.251534	4.474743	1.890624
H	5.398669	4.593366	0.128832
H	2.941138	2.980561	2.627325
H	0.595413	3.964591	-0.726600
H	5.237090	5.561732	7.075673
H	6.542063	5.534624	5.894702
H	6.971516	3.507839	4.712331
H	3.073456	4.130492	6.404686
H	6.268040	1.273134	3.914256
H	2.355978	1.908731	5.573371
H	3.934289	0.479158	4.322896
H	-10.198611	3.471146	0.960351
H	-9.665088	4.205398	-0.557245
H	-9.272550	1.234522	0.158133
H	-8.885746	1.964339	-1.387107
H	-11.688279	1.702201	-0.201573
H	-12.507471	2.344718	-2.480155
H	-11.571532	3.653993	-1.749752
H	-10.841087	2.636336	-2.998832
H	-12.030975	-0.081135	-1.915188
H	-10.691683	-0.505567	-0.832444
H	-10.357206	0.103595	-2.457614
H	-0.005856	0.913720	3.766943
H	-4.789204	7.578747	-2.228207
H	6.173643	7.556634	-3.317471
H	9.440306	-2.973228	3.967468
H	-3.650995	1.136369	6.733471
H	-6.705271	1.307455	2.771013
H	-3.462023	4.699204	2.288386
H	-0.345994	-8.526216	-6.645377
H	6.928942	-4.479807	-4.782642
H	1.009056	5.799146	-5.297269
H	2.878919	-7.846372	-4.656757
H	-4.341730	-8.257656	-1.225186
H	2.755395	5.168339	-1.071433
H	0.085100	-7.000866	-5.846656
H	2.879952	4.990282	-3.898853
H	-1.963915	-0.344956	3.969781
H	-3.751813	1.191209	2.607732
H	-8.476141	3.519799	0.557736
H	-5.378922	-4.083581	-0.079908
C	-0.831400	1.157323	0.011950
C	-2.148039	0.342181	-0.004924
H	-2.993872	1.028769	0.099601
H	-0.856724	1.724520	-0.944689
C	0.406578	0.254617	-0.076543
C	0.954532	-0.087956	-1.319258
C	1.037040	-0.228996	1.076205
C	2.088348	-0.898604	-1.412090
H	0.505023	0.289131	-2.233176
C	2.175730	-1.030031	0.990667
H	0.655642	0.043501	2.049073
C	2.704663	-1.375739	-0.255034
H	2.487673	-1.148515	-2.390058
H	2.652883	-1.370532	1.906000
H	3.589653	-2.002265	-0.323530
H	-2.185823	-0.378352	0.807426
H	4.713429	5.937800	1.045342
H	5.225668	6.085635	-3.022643
H	5.007311	3.995283	-4.013270
H	8.015776	-1.949985	4.213772
H	0.224513	-3.271110	7.392822
C	4.704265	6.438691	5.167126
H	3.622449	6.335207	5.290504
H	4.980079	7.459598	5.453567
H	4.927699	6.312433	4.103462
H	-3.273250	6.776568	-0.107998
H	-0.438298	8.974725	-0.685254
H	-1.749940	8.852521	0.508884
H	0.241611	7.456376	1.146403
H	-1.186223	6.448376	0.899864
H	0.570697	2.634004	1.295866
H	-2.078599	0.124867	-1.977904