104

C	0.756695	2.151492		5.600250		
C	1.683384	2.723106		4.533341		
O	2.822043	3.087981		4.809297		
N	1.184161	2.804663		3.261693		
C	2.015980	3.353695		2.191801		
C	1.420918	3.208324		0.791783		
C	1.047038	1.782501		0.389001		
C	2.193152	0.803190		0.305985		
O	3.365560	1.108501		0.226611		
O	1.827343	-0.494912		0.321098		
C	6.123228	2.047743		-3.143614		
C	6.829259	1.921980		-1.798227		
O	7.979821	2.341615		-1.656661		
C	4.723117	1.453405		-3.288892		
O	4.786795	0.057173		-3.072817		
N	6.107949	1.372837		-0.797489		
C	6.644235	1.215458		0.530552		
C	7.156599	-3.196661		0.643225		
C	6.635442	-3.696808		1.838913		
C	6.354209	-2.398362		-0.174843		
C	5.329869	-3.396940		2.223620		
C	5.045159	-2.094298		0.194821		
C	4.534217	-2.588049		1.403421		
O	3.269893	-2.297811		1.820522		
C	3.710164	-3.434129		-3.267414		
C	2.462195	-2.674739		-2.937124		
N	2.330256	-1.329245		-3.238217		
C	1.309805	-3.118563		-2.331527		
C	1.124848	-0.981630		-2.821384		
N	0.462951	-2.031395		-2.276390		
C	-2.939920	1.912970		-4.222446		
C	-2.102255	2.560283		-3.117029		
C	-2.286872	1.985029		-1.709757		
S	-2.371803	0.250080		-1.516672		
C	-2.306242	2.791308		-0.617830		
S	-2.315298	2.125585		1.004388		
W	-2.370615	-0.304492		0.962908		
C	-2.279594	4.299942		-0.747408		
C	-1.742151	4.684104		-2.127108		
O	-2.398149	3.956174		-3.151438		
C	-6.890806	0.710066		-0.474682		
C	-6.842970	-0.794858		-0.195699		
C	-5.444840	-1.223475		0.205155		
S	-4.712956	-0.336988		1.540268		
C	-4.765349	-2.198815		-0.430956		
S	-3.057852	-2.476738		-0.070784		
C	-5.439536	-3.046329		-1.481636		
C	-6.953711	-2.838290		-1.404426		
O	-7.274616	-1.455203		-1.385849		
O	-0.647132	-1.226444		0.609403		
O	-1.999252	-0.126647		2.629036		
O	0.123808	-3.130436		2.461957		
C	0.970639	-2.705270		3.222665		
H	1.268432	1.317925		6.088399		
H	2.156189	3.610945		0.087417		
H	0.519269	3.826017		0.703970		
H	0.545678	1.791714		-0.587422		
H	0.305749	1.376902		1.077539		
H	2.987926	2.854408		2.235984		
H	4.347402	1.690267		-4.298882		
H	4.036941	1.940561		-2.573288		
H	3.897310	-0.338270		-3.228660		
H	6.092773	3.118297		-3.382147		
H	5.818663	1.135610		1.239443		
H	7.264275	2.080944		0.777672		
H	7.251297	-4.320468		2.482244		
H	6.741632	-1.990118		-1.104063		
H	4.915263	-3.768715		3.155804		
H	4.431438	-1.463816		-0.440126		
H	2.857831	-1.659872		1.201720		
H	3.654245	-4.458862		-2.889574		
H	4.589311	-2.955627		-2.825162		
H	1.026662	-4.081801		-1.937184		
H	-0.425588	-1.975730		-1.789390		
H	0.687649	0.004195		-2.883474		
H	-2.684882	0.856603		-4.330331		
H	-4.006300	1.990073		-3.990654		
H	-1.033756	2.428040		-3.381044		
H	-1.654205	4.750140		0.033665		
H	-0.654340	4.503507		-2.170794		
H	-6.110014	0.984925		-1.189318		
H	-6.734711	1.277778		0.444385		
H	-7.551338	-1.033752		0.621157		
H	-5.196517	-4.106470		-1.325988		
H	-7.356984	-3.337941		-0.507371		
H	-1.917338	5.743706		-2.339235		
H	-3.291751	4.705215		-0.614270		
H	-2.743511	2.430456		-5.165346		
H	-7.867082	0.972157		-0.895805		
H	-5.070476	-2.778849		-2.480587		
H	-7.457729	-3.256789		-2.281708		
H	-0.205411	1.802726		5.213363		
H	2.210669	4.416964		2.388279		
H	3.873218	-3.477715		-4.350972		
H	6.785930	1.588933		-3.885528		
H	7.265474	0.315278		0.619090		
H	5.192656	0.983247		-0.970454		
H	0.218142	2.568179		3.079532		
H	0.580721	2.917542		6.361021		
H	-0.459126	-1.929964		1.275954		
H	8.177440	-3.426662		0.352654		
H	1.239917	-1.637896		3.268900		
H	1.502022	-3.374530		3.923372		
H	0.829425	-0.650288		0.385176		