104

C	-0.210945	4.543979		-4.150527	
C	-1.168090	4.664422		-2.970507	
O	-2.182533	5.354226		-3.035656	
N	-0.840240	3.966287		-1.843892	
C	-1.679233	4.061579		-0.649095	
C	-1.020202	3.451623		0.581133	
C	-0.992457	1.920802		0.534608	
C	-2.394143	1.366429		0.658784	
O	-3.171845	1.780641		1.504896	
O	-2.763294	0.397815		-0.184774	
C	-6.179762	0.614104		3.211192	
C	-6.806661	0.748502		1.822916	
O	-7.954627	0.370427		1.582127	
C	-4.993433	-0.343500		3.311078	
O	-5.369380	-1.627832		2.854014	
N	-6.013730	1.366843		0.907917	
C	-6.459883	1.642064		-0.439628	
C	-7.062507	-2.161083		-2.656591	
C	-6.179200	-2.563949		-3.660020	
C	-6.573162	-1.808287		-1.397304	
C	-4.809139	-2.627548		-3.409310	
C	-5.202563	-1.855563		-1.136627	
C	-4.332069	-2.277075		-2.145352	
O	-2.964558	-2.362715		-1.941234	
C	-3.905705	-4.397674		0.844790	
C	-2.739916	-3.532376		1.223666	
N	-2.809785	-2.705443		2.327530	
C	-1.494542	-3.402306		0.637846	
C	-1.641351	-2.094089		2.402468	
N	-0.806804	-2.485624		1.409710	
C	2.779787	-0.495125		4.559822	
C	1.939130	0.631803		3.965404	
C	2.130102	0.826692		2.465162	
S	2.121672	-0.598554		1.436304	
C	2.285460	2.054138		1.918631	
S	2.464275	2.255263		0.183574	
W	2.412563	0.086234		-0.919923	
C	2.326892	3.297511		2.779286	
C	1.713623	2.989101		4.145735	
O	2.276280	1.809879		4.697234	
C	6.956165	0.003603		0.897671	
C	6.879087	-1.002560		-0.259132	
C	5.463175	-1.105204		-0.800316	
S	4.745193	0.386888		-1.407722	
C	4.763622	-2.260967		-0.772576	
S	3.028969	-2.251300		-1.111814	
C	5.433285	-3.565586		-0.419613	
C	6.949332	-3.377390		-0.496267	
O	7.351320	-2.248415		0.262425	
O	-1.367850	-0.222603		-2.447737	
O	2.084720	1.104084		-2.480851	
O	0.619289	-0.480080		-1.365650	
C	-0.007824	-0.430139		-2.526675	
H	-0.750277	4.099381		-4.991925	
H	-1.586085	3.759565		1.465202	
H	-0.000493	3.834078		0.683260	
H	-0.410024	1.531248		1.376587	
H	-0.501444	1.553255		-0.366046	
H	-2.651068	3.588443		-0.843289	
H	-4.675966	-0.370167		4.370235	
H	-4.148337	0.054992		2.737086	
H	-4.533975	-2.136445		2.793864	
H	-5.854049	1.603138		3.557843	
H	-5.869423	1.092992		-1.181145	
H	-6.388919	2.713701		-0.666340	
H	-6.555748	-2.835936		-4.642488	
H	-7.244837	-1.476172		-0.610452	
H	-4.106447	-2.951515		-4.170839	
H	-4.826481	-1.555011		-0.163262	
H	-2.775290	-2.343609		-0.984412	
H	-3.792605	-4.799922		-0.165436	
H	-4.837295	-3.828538		0.889949	
H	-1.034281	-3.899062		-0.202864	
H	0.123886	-2.100970		1.246105	
H	-1.359577	-1.357731		3.141602	
H	2.504453	-1.457940		4.124097	
H	3.841416	-0.318707		4.364166	
H	0.869675	0.404709		4.150211	
H	1.780011	4.120577		2.302504	
H	0.619259	2.882514		4.053556	
H	6.244643	-0.275570		1.679598	
H	6.716470	1.009819		0.549166	
H	7.557172	-0.674766		-1.069262	
H	5.116274	-4.355296		-1.114946	
H	7.261603	-3.270038		-1.548782	
H	1.915690	3.791119		4.863070	
H	3.364332	3.636846		2.901711	
H	2.621905	-0.532517		5.641984	
H	7.966558	-0.002474		1.319742	
H	5.146073	-3.894233		0.588294	
H	7.479904	-4.235385		-0.069950	
H	0.677636	3.941399		-3.941226	
H	-1.897893	5.121935		-0.478639	
H	-4.003419	-5.243350		1.536130	
H	-6.981115	0.267344		3.869413	
H	-7.502930	1.331650		-0.515096	
H	-5.044298	1.558376		1.147779	
H	0.027302	3.448489		-1.799184	
H	0.097076	5.548599		-4.452532	
H	-1.886294	-1.053099		-2.563689	
H	-8.129200	-2.116689		-2.856195	
H	1.138145	0.881632		-2.851218	
H	0.326579	-1.109377		-3.314402	
H	-2.107201	0.267240		-0.911870	