104

C	0.639986	2.037609		5.550899	
C	0.918336	3.012614		4.403189	
O	0.740419	4.221072		4.557534	
N	1.384243	2.459901		3.247242	
C	1.964461	3.265460		2.176481	
C	1.338346	3.080729		0.793169	
C	1.202479	1.617107		0.342403	
C	2.461040	0.774810		0.589120	
O	3.291900	0.658454		-0.335321	
O	2.544913	0.258368		1.760410	
C	6.168795	1.996372		-3.091786	
C	6.851155	1.718925		-1.755744	
O	8.061439	1.919840		-1.621008	
C	4.834198	1.323137		-3.396530	
O	5.031561	-0.067633		-3.542247	
N	6.058155	1.337429		-0.730236	
C	6.619867	1.133432		0.584551	
C	7.123681	-3.280267		0.670791	
C	6.864503	-3.635785		2.001221	
C	6.242953	-2.420252		0.005487	
C	5.759013	-3.121684		2.667608	
C	5.126370	-1.902977		0.653738	
C	4.886696	-2.228744		2.007383	
O	3.864185	-1.719829		2.702051	
C	3.750576	-3.480461		-3.305324	
C	2.647444	-2.626863		-2.785614	
N	2.489416	-1.325263		-3.220093	
C	1.695170	-2.917008		-1.840066	
C	1.468940	-0.842589		-2.536678	
N	0.942060	-1.770416		-1.698909	
C	-2.872797	1.884801		-4.340725	
C	-2.044273	2.518477		-3.218524	
C	-2.200026	1.892483		-1.824359	
S	-2.086171	0.167685		-1.677048	
C	-2.294452	2.684689		-0.703857	
S	-2.326130	1.996499		0.879845	
W	-2.303418	-0.449564		0.693162	
C	-2.319769	4.193909		-0.809027	
C	-1.758564	4.624028		-2.163775	
O	-2.389957	3.899227		-3.207934	
C	-6.894744	0.657770		-0.677315	
C	-6.935550	-0.758043		-0.092783	
C	-5.519819	-1.190432		0.228480	
S	-4.625319	-0.122465		1.265124	
C	-4.927704	-2.257513		-0.377470	
S	-3.207152	-2.490002		-0.280003	
C	-5.763075	-3.243640		-1.158781	
C	-7.245453	-2.977030		-0.889628	
O	-7.540434	-1.599294		-1.071468	
O	-0.550944	-2.711800		2.665200	
O	-1.876999	-0.336713		2.604026	
O	-0.689704	-1.467443		0.673730	
C	0.163678	-1.956470		1.747323	
H	1.378877	2.213086		6.339098	
H	1.967523	3.628607		0.079610	
H	0.346418	3.548263		0.776049	
H	0.957277	1.591832		-0.723199	
H	0.380797	1.157615		0.893793	
H	3.032658	3.021388		2.113958	
H	4.436565	1.772251		-4.327026	
H	4.100557	1.544935		-2.606391	
H	4.143786	-0.485881		-3.531912	
H	6.037823	3.086424		-3.152371	
H	5.808318	0.894775		1.273289	
H	7.137540	2.036661		0.928525	
H	7.539044	-4.310272		2.523591	
H	6.429780	-2.127143		-1.024275	
H	5.553437	-3.368627		3.704757	
H	4.459490	-1.213975		0.143625	
H	3.414228	-0.943544		2.220046	
H	3.768905	-4.451797		-2.802522	
H	4.719910	-2.995658		-3.146558	
H	1.495643	-3.808763		-1.266082	
H	0.224858	-1.617666		-0.992607	
H	1.090869	0.165789		-2.597247	
H	-2.599175	0.836693		-4.482748	
H	-3.939862	1.942646		-4.106621	
H	-0.974108	2.423806		-3.483960	
H	-1.742568	4.642816		0.007168	
H	-0.668424	4.467212		-2.192551	
H	-6.190369	0.697208		-1.512490	
H	-6.587506	1.382430		0.078042	
H	-7.552616	-0.764779		0.824298	
H	-5.500143	-4.270994		-0.874761	
H	-7.511146	-3.298138		0.130983	
H	-1.956755	5.682478		-2.355490	
H	-3.353150	4.551081		-0.706306	
H	-2.684066	2.432955		-5.267024	
H	-7.889970	0.928996		-1.045017	
H	-5.552829	-3.146340		-2.231895	
H	-7.879812	-3.522610		-1.594283	
H	0.685969	0.985789		5.254372	
H	1.878943	4.308529		2.490354	
H	3.650801	-3.655988		-4.383505	
H	6.893784	1.730823		-3.867677	
H	7.345214	0.312661		0.597428	
H	5.078473	1.094537		-0.847555	
H	1.609367	1.470067		3.183510	
H	-0.345475	2.258579		5.968754	
H	-1.119072	-2.073398		3.127662	
H	7.996995	-3.674581		0.158980	
H	0.904297	-2.605753		1.276984	
H	0.653996	-1.082781		2.185054	
H	-2.422725	0.242900		3.152546	