104

C	-0.687804	4.438100		-3.993916	
C	-0.956272	4.753982		-2.520038	
O	-0.778582	5.893721		-2.090396	
N	-1.410771	3.721208		-1.753958	
C	-1.991304	3.937973		-0.430307	
C	-1.346427	3.161594		0.718768	
C	-1.187041	1.654387		0.464655	
C	-2.430707	0.995724		-0.152557	
O	-3.286625	0.510648		0.616495	
O	-2.474895	1.013813		-1.434529	
C	-6.176657	0.348509		3.648935	
C	-6.867259	0.717235		2.339620	
O	-8.080086	0.945214		2.318949	
C	-4.847603	-0.399346		3.607521	
O	-5.063314	-1.713330		3.137568	
N	-6.080260	0.867220		1.251418	
C	-6.648485	1.315563		0.001227	
C	-7.171818	-2.538820		-2.146296	
C	-6.698991	-2.494292		-3.461359	
C	-6.374767	-2.022044		-1.121313	
C	-5.463628	-1.917200		-3.755302	
C	-5.135940	-1.445739		-1.400422	
C	-4.678411	-1.369867		-2.727137	
O	-3.499058	-0.788554		-3.053974	
C	-3.781236	-4.589972		1.248426	
C	-2.683750	-3.578806		1.205826	
N	-2.523026	-2.663073		2.229720	
C	-1.749098	-3.343210		0.228349	
C	-1.521319	-1.887002		1.866242	
N	-1.004887	-2.265018		0.668941	
C	2.870054	-0.351916		4.643480	
C	2.010796	0.702411		3.949977	
C	2.239050	0.865326		2.445121	
S	2.384229	-0.573208		1.446166	
C	2.246140	2.081574		1.860113	
S	2.362969	2.209591		0.121197	
W	2.366423	-0.010802		-0.879576	
C	2.130472	3.357185		2.661815	
C	1.564922	3.030201		4.046128	
O	2.254112	1.931972		4.625882	
C	6.869636	0.280321		0.808659	
C	6.822802	-0.924026		-0.138076	
C	5.413762	-1.122418		-0.664808	
S	4.682992	0.230507		-1.496878	
C	4.719873	-2.275757		-0.472034	
S	3.025763	-2.340909		-0.902564	
C	5.402161	-3.502521		0.083091	
C	6.917543	-3.298646		0.023105	
O	7.274151	-2.052719		0.605339	
O	0.750745	-0.895975		-3.686576	
O	2.157063	1.143753		-2.426358	
O	0.692346	-0.683777		-1.336730	
C	-0.070639	-0.710037		-2.594552	
H	-1.438510	4.955711		-4.599113	
H	-1.975899	3.322334		1.603592	
H	-0.361237	3.589993		0.938780	
H	-0.946407	1.158081		1.410512	
H	-0.354671	1.504239		-0.221312	
H	-3.053060	3.665706		-0.484491	
H	-4.434922	-0.403731		4.635134	
H	-4.118700	0.138817		2.982529	
H	-4.182646	-2.088870		2.927440	
H	-6.033690	1.291272		4.196966	
H	-5.846032	1.388497		-0.734031	
H	-7.129093	2.294660		0.119328	
H	-7.302800	-2.900932		-4.270230	
H	-6.714240	-2.051066		-0.088938	
H	-5.096335	-1.857945		-4.775998	
H	-4.529770	-1.025781		-0.603216	
H	-3.216206	-0.138036		-2.346343	
H	-3.774833	-5.217576		0.352735	
H	-4.754845	-4.091581		1.307161	
H	-1.562305	-3.820576		-0.721073	
H	-0.302553	-1.765537		0.135841	
H	-1.152898	-1.032972		2.413688	
H	2.658077	-1.349337		4.249687	
H	3.933475	-0.137082		4.502061	
H	0.947907	0.429325		4.090809	
H	1.484463	4.079868		2.151072	
H	0.488866	2.807231		3.970382	
H	6.112618	0.173947		1.590106	
H	6.684003	1.208099		0.264038	
H	7.508191	-0.749410		-0.988317	
H	5.113495	-4.390553		-0.494373	
H	7.265769	-3.350961		-1.021454	
H	1.691968	3.872185		4.732518	
H	3.120845	3.821616		2.757209	
H	2.647937	-0.341106		5.713626	
H	7.856644	0.333761		1.278082	
H	5.086609	-3.678135		1.119290	
H	7.443629	-4.066551		0.597481	
H	-0.726236	3.370563		-4.230077	
H	-1.930827	5.011422		-0.236734	
H	-3.691842	-5.240160		2.126405	
H	-6.901342	-0.234536		4.225609	
H	-7.404773	0.618666		-0.374016	
H	-5.091494	0.632133		1.243728	
H	-1.637883	2.813736		-2.154896	
H	0.290072	4.841535		-4.268780	
H	1.271834	-0.083151		-3.789444	
H	-8.139496	-2.980096		-1.923775	
H	-0.764521	-1.547085		-2.523135	
H	-0.625082	0.234432		-2.581111	
H	2.315628	2.097283		-2.418896	