104

C	-1.296553	5.816155		-1.523876	
C	-1.585304	5.481928		-0.058844	
O	-1.552333	6.347278		0.814971	
N	-1.902920	4.178126		0.181837	
C	-2.410627	3.698108		1.462973	
C	-1.601552	2.544018		2.065954	
C	-1.261544	1.429005		1.059273	
C	-2.478986	0.995823		0.233472	
O	-3.341013	0.272236		0.761339	
O	-2.531885	1.472784		-0.967869	
C	-6.163210	-1.641901		3.571070	
C	-6.920681	-0.750482		2.593880	
O	-8.138985	-0.595000		2.711358	
C	-4.759567	-2.107133		3.191569	
O	-4.842026	-2.958119		2.068636	
N	-6.193298	-0.096398		1.659883	
C	-6.854301	0.788305		0.728523	
C	-7.202166	-1.758505		-2.895667	
C	-6.921048	-1.013577		-4.044081	
C	-6.336357	-1.683523		-1.802134	
C	-5.801329	-0.184727		-4.096507	
C	-5.210107	-0.864176		-1.843137	
C	-4.945394	-0.094361		-2.988189	
O	-3.879662	0.736692		-3.058799	
C	-3.538101	-4.813111		-0.781092	
C	-2.498783	-3.775806		-0.514909	
N	-2.331732	-3.245083		0.750989	
C	-1.617596	-3.178690		-1.382661	
C	-1.376062	-2.342600		0.640633	
N	-0.902518	-2.268729		-0.629206	
C	2.944212	-1.979185		4.084670	
C	2.042239	-0.781488		3.805639	
C	2.250156	-0.144850		2.436169	
S	2.428514	-1.222074		1.050866	
C	2.260435	1.188471		2.269238	
S	2.391711	1.850092		0.649394	
W	2.575565	0.054574		-0.985930	
C	2.140781	2.144480		3.431483	
C	1.587596	1.390444		4.644300	
O	2.281521	0.166314		4.842144	
C	6.725033	0.592717		0.892030	
C	6.935075	-0.353130		-0.298208	
C	5.615370	-0.632064		-0.997736	
S	4.790853	0.758011		-1.710802	
C	5.079000	-1.881785		-1.053760	
S	3.435981	-2.111688		-1.629483	
C	5.891177	-3.082968		-0.638247	
C	7.366373	-2.688227		-0.575650	
O	7.529912	-1.534320		0.234801	
O	-0.102734	2.611507		-2.666073	
O	2.255154	1.908625		-2.166275	
O	1.086176	-0.284720		-1.761200	
C	-1.042419	1.825402		-2.832031	
H	-2.214868	6.188833		-1.991578	
H	-2.189586	2.125256		2.891588	
H	-0.668173	2.932266		2.490926	
H	-0.876113	0.565095		1.609487	
H	-0.477595	1.777601		0.385150	
H	-3.447442	3.364799		1.322589	
H	-4.324780	-2.628748		4.065117	
H	-4.110164	-1.238511		2.994516	
H	-3.936221	-3.071570		1.705849	
H	-6.117987	-1.097033		4.524308	
H	-6.094790	1.261613		0.105221	
H	-7.422027	1.557070		1.264862	
H	-7.585118	-1.069099		-4.904107	
H	-6.534935	-2.251557		-0.896742	
H	-5.580038	0.413830		-4.975617	
H	-4.549178	-0.789065		-0.984779	
H	-3.495305	0.909957		-2.149144	
H	-3.571355	-5.074684		-1.842686	
H	-4.528367	-4.449156		-0.487793	
H	-1.450240	-3.303862		-2.441196	
H	-0.214116	-1.608515		-0.975833	
H	-1.008015	-1.712798		1.435074	
H	2.722874	-2.801407		3.399912	
H	3.996770	-1.702572		3.972919	
H	0.988876	-1.114230		3.868498	
H	1.484980	2.986014		3.180249	
H	0.511062	1.199874		4.509017	
H	5.979791	0.175196		1.574270	
H	6.382413	1.572846		0.554008	
H	7.629377	0.113568		-1.021437	
H	5.740750	-3.899811		-1.356646	
H	7.755040	-2.510181		-1.591774	
H	1.718623	1.970517		5.562432	
H	3.126874	2.567219		3.666703	
H	2.777418	-2.321354		5.109862	
H	7.670315	0.708997		1.430722	
H	5.556189	-3.451075		0.339844	
H	7.969819	-3.474149		-0.112150	
H	-0.937428	4.955925		-2.095215	
H	-2.425295	4.557142		2.137561	
H	-3.345852	-5.728164		-0.208172	
H	-6.799152	-2.515690		3.746026	
H	-7.554278	0.249575		0.080818	
H	-5.208450	-0.278319		1.503849	
H	-1.992040	3.522178		-0.587609	
H	-0.556793	6.618660		-1.555979	
H	1.252583	2.143914		-2.345770	
H	-8.082358	-2.394611		-2.856901	
H	-2.009151	2.187073		-3.192099	
H	-0.906233	0.744295		-2.736908	
H	2.710668	2.711895		-1.875704	