104

C	-0.815191	5.709177		1.363484	
C	-1.063436	4.689251		2.478036	
O	-0.838676	4.963851		3.656909	
N	-1.574042	3.495632		2.065555	
C	-2.094301	2.483408		2.978058	
C	-1.396547	1.121917		2.882535	
C	-1.191616	0.630729		1.439312	
C	-2.466959	0.739738		0.600967	
O	-3.306060	-0.175069		0.666686	
O	-2.583176	1.826668		-0.087509	
C	-6.147744	-3.006690		2.292444	
C	-6.851464	-1.736170		1.827641	
O	-8.067256	-1.606238		1.993494	
C	-4.796532	-3.381981		1.693748	
O	-4.973390	-3.791564		0.354712	
N	-6.073234	-0.747479		1.334876	
C	-6.658946	0.519637		0.963058	
C	-7.055120	0.038189		-3.436176	
C	-7.158430	1.409041		-3.687559	
C	-6.028531	-0.431788		-2.616689	
C	-6.263782	2.306178		-3.106862	
C	-5.119525	0.451104		-2.039279	
C	-5.248331	1.832708		-2.261803	
O	-4.434919	2.737409		-1.665438	
C	-3.590516	-3.845399		-3.059774	
C	-2.565503	-3.190549		-2.200006	
N	-2.429320	-3.525891		-0.866295	
C	-1.669489	-2.201431		-2.520043	
C	-1.477042	-2.742125		-0.395971	
N	-0.975187	-1.932661		-1.360466	
C	2.919373	-4.031727		2.536098	
C	2.118369	-2.791712		2.930012	
C	2.302035	-1.549169		2.048670	
S	2.418232	-1.781850		0.315576	
C	2.272524	-0.296596		2.603390	
S	2.247182	1.144950		1.629431	
W	2.335176	0.388989		-0.699160	
C	2.250505	-0.104465		4.104600	
C	1.754199	-1.377392		4.790732	
O	2.439193	-2.514811		4.287887	
C	6.888015	-0.451334		0.944590	
C	7.045141	-0.002617		-0.512515	
C	5.667628	0.220795		-1.112629	
S	4.673408	1.361889		-0.256757	
C	5.213755	-0.526484		-2.165053	
S	3.530736	-0.602963		-2.613942	
C	6.185987	-1.352918		-2.975240	
C	7.619867	-0.984711		-2.595656	
O	7.774699	-1.025147		-1.185701	
O	-0.216059	3.504092		-1.500321	
O	2.153433	2.514290		-1.402235	
O	0.770023	0.366176		-1.389731	
C	-1.173718	2.819325		-1.866442	
H	-1.656340	6.410777		1.336353	
H	-2.004436	0.396356		3.437216	
H	-0.419244	1.177565		3.376095	
H	-0.858472	-0.411273		1.457688	
H	-0.413376	1.231379		0.969619	
H	-3.162744	2.349674		2.764677	
H	-4.370690	-4.197261		2.309781	
H	-4.091881	-2.538229		1.771395	
H	-4.079862	-3.842693		-0.046903	
H	-6.035823	-2.909819		3.382119	
H	-5.855492	1.219597		0.731873	
H	-7.264740	0.912633		1.786856	
H	-7.951803	1.785677		-4.329650	
H	-5.942603	-1.492328		-2.395759	
H	-6.346969	3.376649		-3.271608	
H	-4.352437	0.084127		-1.365329	
H	-3.833565	2.281894		-1.003039	
H	-3.643970	-3.368811		-4.042807	
H	-4.579635	-3.781353		-2.593493	
H	-1.476505	-1.671035		-3.439555	
H	-0.300434	-1.183368		-1.242722	
H	-1.136453	-2.708934		0.627820	
H	2.639767	-4.377464		1.538506	
H	3.992404	-3.818247		2.546644	
H	1.042893	-3.048544		2.869118	
H	1.617216	0.746857		4.376379	
H	0.668240	-1.490449		4.642441	
H	6.212664	-1.309425		1.000999	
H	6.485868	0.354816		1.558780	
H	7.622709	0.939030		-0.549998	
H	6.015119	-1.186612		-4.046941	
H	7.875654	0.014179		-2.986188	
H	1.950219	-1.346188		5.866210	
H	3.266897	0.129890		4.448548	
H	2.711390	-4.824927		3.258402	
H	7.865546	-0.747648		1.338845	
H	6.011168	-2.420607		-2.788189	
H	8.334455	-1.703820		-3.006801	
H	-0.710810	5.252655		0.375446	
H	-2.003086	2.890597		3.987799	
H	-3.373217	-4.910445		-3.209097	
H	-6.851743	-3.828522		2.128826	
H	-7.307878	0.431236		0.084928	
H	-5.092782	-0.874828		1.110093	
H	-1.792068	3.329867		1.086979	
H	0.084330	6.278528		1.607553	
H	1.201588	2.887081		-1.431726	
H	-7.767817	-0.653899		-3.876705	
H	-2.162907	3.266850		-2.013034	
H	-1.047419	1.763331		-2.130859	
H	2.765082	3.177790		-1.058496	