104

C	-0.798754	3.135670		-4.969458	
C	-1.108789	3.870845		-3.664039	
O	-1.056430	5.096111		-3.597814	
N	-1.465909	3.074540		-2.611036	
C	-2.052593	3.611208		-1.384726	
C	-1.426308	3.111243		-0.079966	
C	-1.193952	1.589104		0.000476	
C	-2.390581	0.774077		-0.454636	
O	-3.407943	0.683157		0.214278	
O	-2.281268	0.205516		-1.666508	
C	-6.137440	1.224385		3.581030	
C	-6.780383	1.529889		2.229775	
O	-7.758037	2.278327		2.154839	
C	-4.751040	0.585013		3.591665	
O	-4.845299	-0.726951		3.065276	
N	-6.205854	0.933002		1.163116	
C	-6.666304	1.156473		-0.184508	
C	-7.159841	-3.142362		-1.193688	
C	-7.044349	-3.246441		-2.582904	
C	-6.183352	-2.449624		-0.476777	
C	-5.979634	-2.649307		-3.254750	
C	-5.107481	-1.856305		-1.135199	
C	-5.010631	-1.936804		-2.532913	
O	-4.008647	-1.342524		-3.228175	
C	-3.700207	-4.155625		2.578797	
C	-2.492269	-3.323425		2.277386	
N	-2.373648	-2.034098		2.764585	
C	-1.382640	-3.628093		1.524198	
C	-1.223315	-1.573940		2.310957	
N	-0.579777	-2.503843		1.560642	
C	2.929533	0.916725		4.590008	
C	2.021905	1.728914		3.672022	
C	2.227802	1.501910		2.174840	
S	2.436030	-0.143758		1.591073	
C	2.179660	2.524082		1.289277	
S	2.246677	2.220513		-0.428901	
W	2.385715	-0.194712		-0.824494	
C	2.053015	3.959762		1.751017	
C	1.504755	3.990652		3.178043	
O	2.222409	3.098122		4.015914	
C	6.873879	0.522870		0.667095	
C	6.888096	-0.806523		-0.097379	
C	5.481980	-1.157373		-0.544987	
S	4.671406	0.060111		-1.524549	
C	4.843345	-2.269537		-0.116588	
S	3.108200	-2.437795		-0.387778	
C	5.594179	-3.360962		0.605167	
C	7.096275	-3.120603		0.440476	
O	7.427983	-1.785242		0.790532	
O	0.310412	-1.690898		-3.155715	
O	1.999591	0.413363		-2.661565	
O	0.657716	-0.942530		-0.982438	
C	-0.223210	-1.387659		-1.923382	
H	-1.609229	3.330195		-5.679157	
H	-2.087988	3.425698		0.735568	
H	-0.456643	3.594896		0.071919	
H	-0.974226	1.324904		1.038842	
H	-0.323447	1.335174		-0.598167	
H	-3.124766	3.367272		-1.376832	
H	-4.379222	0.571638		4.630824	
H	-4.051816	1.200464		3.002383	
H	-3.944654	-1.124248		3.041218	
H	-6.114477	2.173517		4.127904	
H	-5.818823	1.092419		-0.868802	
H	-7.122421	2.147926		-0.243993	
H	-7.796454	-3.788767		-3.151399	
H	-6.260861	-2.343150		0.602383	
H	-5.886046	-2.706938		-4.335054	
H	-4.365009	-1.295858		-0.578111	
H	-3.487938	-0.763526		-2.632624	
H	-3.637444	-5.130819		2.087916	
H	-4.610438	-3.656144		2.232056	
H	-1.101197	-4.515807		0.979363	
H	0.286429	-2.348605		1.061339	
H	-0.813093	-0.591257		2.488707	
H	2.752178	-0.154084		4.464602	
H	3.981406	1.123195		4.370708	
H	0.971793	1.464491		3.906572	
H	1.395904	4.528648		1.083139	
H	0.432945	3.730906		3.175914	
H	6.143606	0.477311		1.479095	
H	6.610391	1.349071		0.005255	
H	7.547350	-0.716500		-0.980738	
H	5.321444	-4.343257		0.195927	
H	7.401559	-3.336749		-0.596849	
H	1.611601	4.984841		3.622901	
H	3.037360	4.445480		1.716476	
H	2.725972	1.191194		5.628881	
H	7.865588	0.706289		1.093426	
H	5.329131	-3.373991		1.670528	
H	7.677495	-3.764266		1.108044	
H	-0.688821	2.054425		-4.848404	
H	-1.967080	4.697644		-1.455373	
H	-3.808271	-4.319081		3.656999	
H	-6.828300	0.570632		4.128904	
H	-7.415673	0.417072		-0.494943	
H	-5.417488	0.315108		1.306190	
H	-1.593275	2.083508		-2.772273	
H	0.119167	3.549347		-5.393317	
H	0.911809	-0.952629		-3.372606	
H	-8.000319	-3.598695		-0.678046	
H	-0.806789	-2.234217		-1.541296	
H	-1.282103	-0.368389		-1.853794	
H	2.715608	0.809068		-3.175312	