101

C	-0.710711	3.965848		-4.413490		
C	-1.018899	4.447097		-2.994322		
O	-0.888750	5.633294		-2.693152		
N	-1.453776	3.491352		-2.124176		
C	-2.021938	3.820191		-0.820709		
C	-1.370141	3.119508		0.373752		
C	-1.181811	1.605127		0.186644		
C	-2.423321	0.903833		-0.386625		
O	-3.335281	0.575897		0.397161		
O	-2.410184	0.734619		-1.660060		
C	-6.193479	0.631258		3.591846		
C	-6.884018	0.874609		2.253389		
O	-8.096978	1.097490		2.209369		
C	-4.840818	-0.076190		3.604861		
O	-5.008804	-1.418053		3.198844		
N	-6.095066	0.917247		1.157366		
C	-6.660743	1.219082		-0.136399		
C	-7.148299	-2.837461		-1.882469		
C	-6.910403	-2.669141		-3.253119		
C	-6.251014	-2.287588		-0.959616		
C	-5.809502	-1.946178		-3.696955		
C	-5.139365	-1.567107		-1.385899		
C	-4.918519	-1.367608		-2.766659		
O	-3.898819	-0.643963		-3.241502		
C	-3.753449	-4.506765		1.711393		
C	-2.700258	-3.486605		1.458722		
N	-2.486261	-2.446538		2.342664		
C	-1.843908	-3.370360		0.391962		
C	-1.523831	-1.718555		1.806504		
N	-1.092172	-2.241471		0.632275		
C	2.854960	0.105784		4.674584		
C	2.018569	1.104548		3.870371		
C	2.196454	1.039749		2.349246		
S	2.100473	-0.518599		1.581041		
C	2.317016	2.185033		1.598670		
S	2.386890	2.129582		-0.126223		
W	2.381622	-0.221507		-0.816191		
C	2.333075	3.548760		2.255598		
C	1.734203	3.450629		3.657996		
O	2.347196	2.392424		4.378852		
C	6.862065	0.376259		0.805197		
C	6.972906	-0.678975		-0.303719		
C	5.575689	-1.015626		-0.783304		
S	4.646992	0.331281		-1.390984		
C	5.021842	-2.245360		-0.589898		
S	3.301486	-2.479708		-0.725907		
C	5.901092	-3.420713		-0.235268		
C	7.367471	-3.025969		-0.416560		
O	7.633494	-1.807995		0.263860		
O	0.754495	-1.202370		-1.296096		
O	1.623049	0.425900		-2.474645		
C	0.513502	-0.460785		-2.485417		
H	-1.427160	4.429841		-5.098427		
H	-2.008174	3.305669		1.246746		
H	-0.392757	3.573380		0.579514		
H	-0.928645	1.157086		1.151951		
H	-0.346617	1.442126		-0.495369		
H	-3.088857	3.559764		-0.838047		
H	-4.437535	-0.014227		4.633722		
H	-4.123092	0.454234		2.959060		
H	-4.115616	-1.784095		3.020743		
H	-6.084386	1.615570		4.069193		
H	-5.848009	1.275899		-0.861213		
H	-7.196835	2.175052		-0.110565		
H	-7.597306	-3.097622		-3.979491		
H	-6.420118	-2.399120		0.108212		
H	-5.620910	-1.789955		-4.754902		
H	-4.462646	-1.115530		-0.666732		
H	-3.396514	-0.143016		-2.513318		
H	-3.841785	-5.199433		0.869289		
H	-4.727116	-4.027921		1.862722		
H	-1.715202	-3.965640		-0.498615		
H	-0.420558	-1.830916		-0.014951		
H	-1.124201	-0.805512		2.217960		
H	2.589306	-0.921984		4.416899		
H	3.920595	0.256133		4.478300		
H	0.948911	0.904377		4.071775		
H	1.775626	4.270721		1.648323		
H	0.645234	3.294939		3.598457		
H	6.158591	0.039431		1.571473		
H	6.516255	1.329519		0.402550		
H	7.579035	-0.281892		-1.137758		
H	5.651667	-4.281860		-0.869196		
H	7.608002	-2.933584		-1.488264		
H	1.917792	4.364029		4.230939		
H	3.366998	3.912919		2.319683		
H	2.666432	0.266808		5.739026		
H	7.843612	0.521270		1.268298		
H	5.720808	-3.727218		0.803349		
H	8.036381	-3.773444		0.019855		
H	-0.760735	2.879752		-4.529483		
H	-1.947664	4.904923		-0.714231		
H	-3.539481	-5.093272		2.613615		
H	-6.902253	0.067962		4.207009		
H	-7.370520	0.450949		-0.462084		
H	-5.111992	0.667476		1.173364		
H	-1.635775	2.541556		-2.437781		
H	0.286917	4.313515		-4.693365		
H	-8.016870	-3.392980		-1.540461		
H	-0.445415	0.068783		-2.418818		
H	0.558166	-1.113871		-3.367478		