101

C	-0.775382	4.220577		-4.407129
C	-0.986300	4.592437		-2.943987
O	-0.522274	5.621300		-2.465208
N	-1.715296	3.693054		-2.215270
C	-2.117487	3.931450		-0.834486
C	-1.335823	3.138411		0.223417
C	-1.053964	1.676221		-0.120118
C	-2.244638	0.820814		-0.477348
O	-3.391758	1.193854		-0.578478
O	-1.956886	-0.489745		-0.736492
C	-6.322821	0.566125		3.411859
C	-6.810759	1.301453		2.163411
O	-7.514505	2.308911		2.251846
C	-4.973123	-0.143020		3.317716
O	-5.075184	-1.243367		2.428577
N	-6.429160	0.734468		0.993402
C	-6.758558	1.300667		-0.294118
C	-7.225540	-2.684028		-2.203604
C	-6.723561	-2.653414		-3.507450
C	-6.394766	-2.316797		-1.143040
C	-5.411429	-2.255281		-3.755389
C	-5.079429	-1.916021		-1.376633
C	-4.583275	-1.878936		-2.689228
O	-3.314173	-1.488924		-2.974938
C	-3.859717	-4.490968		1.350776
C	-2.596924	-3.733698		1.605681
N	-2.625737	-2.490957		2.211112
C	-1.296827	-4.057349		1.298398
C	-1.374180	-2.074481		2.261068
N	-0.531250	-2.991471		1.725312
C	2.716596	0.007185		4.551699
C	1.687047	0.956822		3.927047
C	1.804023	1.027414		2.411493
S	1.764161	-0.486291		1.492954
C	2.034843	2.184063		1.753017
S	2.491053	2.140990		0.048188
W	2.408495	-0.093915		-0.738726
C	2.032969	3.506266		2.481493
C	1.346905	3.322408		3.835363
O	1.914386	2.228539		4.539307
C	6.756703	0.434668		0.731098
C	6.943281	-0.556891		-0.433556
C	5.569484	-0.947002		-0.934805
S	4.557683	0.384637		-1.501425
C	5.031152	-2.153251		-0.658119
S	3.272804	-2.301980		-0.573378
C	5.914263	-3.305109		-0.252369
C	7.370803	-2.916603		-0.516957
O	7.674680	-1.672309		0.093934
O	0.612476	-1.061921		-1.627380
O	1.572388	0.589420		-2.669128
C	0.701930	-0.325271		-2.670085
H	-0.925080	5.113722		-5.017785
H	-1.890380	3.206284		1.167095
H	-0.361995	3.611391		0.383256
H	-0.510655	1.197549		0.701766
H	-0.358049	1.642187		-0.965545
H	-3.179247	3.688326		-0.753206
H	-4.680449	-0.481140		4.325164
H	-4.204912	0.573650		2.981668
H	-4.181979	-1.670895		2.370080
H	-6.298575	1.309112		4.214551
H	-5.847951	1.475371		-0.872570
H	-7.276598	2.245272		-0.119766
H	-7.359878	-2.939068		-4.341594
H	-6.764519	-2.329201		-0.121185
H	-5.009957	-2.222127		-4.763614
H	-4.443145	-1.616466		-0.550260
H	-2.877891	-1.200016		-2.150651
H	-3.646381	-5.517154		1.037299
H	-4.455455	-4.017227		0.562994
H	-0.861021	-4.921419		0.821870
H	0.465107	-2.854214		1.606982
H	-1.026451	-1.133231		2.658348
H	2.548894	-1.021014		4.223147
H	3.725707	0.307380		4.256253
H	0.671330	0.611935		4.202958
H	1.509818	4.271362		1.893144
H	0.263440	3.171300		3.693539
H	6.090612	-0.000839		1.480175
H	6.324962	1.372501		0.378640
H	7.540521	-0.083251		-1.232440
H	5.653429	-4.208809		-0.821219
H	7.557052	-2.876997		-1.603059
H	1.484596	4.199506		4.475860
H	3.059886	3.866867		2.627295
H	2.638385	0.053319		5.642363
H	7.727421	0.637235		1.197821
H	5.778756	-3.547683		0.810481
H	8.063363	-3.643849		-0.079939
H	-1.439165	3.424886		-4.758406
H	-1.987932	5.000947		-0.652368
H	-4.480201	-4.527333		2.252256
H	-7.083766	-0.176471		3.687250
H	-7.413797	0.634733		-0.868774
H	-5.844322	-0.093835		1.051440
H	-2.147962	2.919999		-2.697634
H	0.260708	3.894361		-4.543012
H	-8.250323	-2.991746		-2.017000
H	-0.994635	-0.686939		-0.767187
H	0.042757	-0.491116		-3.531051