101

C	-1.129448	5.580826		-2.319258
C	-1.450579	5.415700		-0.832871
O	-1.424861	6.389083		-0.081696
N	-1.751749	4.150027		-0.428294
C	-2.311276	3.869137		0.893532
C	-1.584767	2.780417		1.688380
C	-1.245454	1.521285		0.870726
C	-2.394444	1.064766		-0.049016
O	-3.384691	0.519408		0.477595
O	-2.232705	1.324562		-1.298544
C	-6.190314	-1.096230		3.602753
C	-6.925686	-0.349725		2.496044
O	-8.149258	-0.202229		2.553870
C	-4.804214	-1.663945		3.306579
O	-4.921358	-2.723474		2.382544
N	-6.173636	0.206170		1.519497
C	-6.807940	0.978135		0.475577
C	-7.178802	-1.988651		-2.811160
C	-6.933948	-1.320937		-4.015842
C	-6.279846	-1.813261		-1.753871
C	-5.826933	-0.484767		-4.157975
C	-5.164704	-0.983396		-1.882928
C	-4.933540	-0.295526		-3.087489
O	-3.891638	0.543772		-3.276150
C	-3.595896	-4.830166		-0.297995
C	-2.595539	-3.738719		-0.120358
N	-2.396784	-3.144974		1.112830
C	-1.782460	-3.144482		-1.053566
C	-1.486851	-2.208816		0.916373
N	-1.075675	-2.173701		-0.375407
C	2.903726	-1.545009		4.250612
C	1.976295	-0.394450		3.884170
C	2.178406	0.104642		2.461737
S	2.370744	-1.117803		1.203265
C	2.207413	1.412579		2.161016
S	2.427719	1.918699		0.493350
W	2.503176	-0.056858		-0.929430
C	2.080652	2.478354		3.222886
C	1.519370	1.847903		4.500830
O	2.213258	0.650001		4.823093
C	6.762683	0.539666		0.806082
C	6.896719	-0.361318		-0.431742
C	5.532117	-0.677005		-1.028929
S	4.668013	0.662380		-1.784443
C	5.011619	-1.942866		-0.979349
S	3.353872	-2.237925		-1.437477
C	5.883430	-3.111159		-0.586084
C	7.347437	-2.700983		-0.732495
O	7.593188	-1.523069		0.018155
O	0.980850	-0.419340		-1.614152
O	2.051954	1.804979		-2.382478
C	0.888092	2.134780		-2.606283
H	-1.800713	6.338168		-2.732978
H	-2.236254	2.511046		2.528303
H	-0.659201	3.188466		2.112435
H	-0.998620	0.711188		1.564549
H	-0.360322	1.719168		0.265745
H	-3.355129	3.557175		0.757732
H	-4.365955	-2.007780		4.262923
H	-4.137203	-0.869717		2.931738
H	-4.021684	-2.926807		2.047054
H	-6.116639	-0.402225		4.452195
H	-6.029301	1.362351		-0.183638
H	-7.377270	1.811897		0.902989
H	-7.616739	-1.444206		-4.854396
H	-6.445915	-2.310379		-0.800985
H	-5.639408	0.047025		-5.086760
H	-4.493194	-0.826085		-1.044537
H	-3.377093	0.729560		-2.440518
H	-3.658621	-5.139345		-1.345281
H	-4.590291	-4.496860		0.018025
H	-1.666971	-3.301590		-2.114592
H	-0.428137	-1.509264		-0.786801
H	-1.109508	-1.529277		1.664364
H	2.683587	-2.431115		3.650779
H	3.948466	-1.262157		4.090429
H	0.928990	-0.734381		3.990335
H	1.425758	3.289556		2.884509
H	0.444067	1.643366		4.377504
H	6.107336	0.065792		1.541370
H	6.345360	1.512900		0.537411
H	7.500647	0.154916		-1.199625
H	5.653694	-3.973707		-1.224853
H	7.595331	-2.551777		-1.796039
H	1.643915	2.515972		5.357955
H	3.064856	2.923971		3.420685
H	2.767074	-1.796015		5.306487
H	7.751131	0.682160		1.252050
H	5.681078	-3.413589		0.449119
H	8.018965	-3.463905		-0.328316
H	-1.240455	4.660020		-2.900262
H	-2.313278	4.814798		1.439846
H	-3.341023	-5.710295		0.304842
H	-6.851993	-1.907072		3.922711
H	-7.500667	0.369543		-0.114888
H	-5.180635	0.032181		1.415561
H	-1.868527	3.396918		-1.104408
H	-0.108047	5.959509		-2.423817
H	-8.047413	-2.631535		-2.699707
H	0.016006	1.620142		-2.168118
H	0.714428	2.990309		-3.275202