104

C	-0.914660	-1.568821		5.580181	
C	0.185826	-0.586398		5.143315	
O	1.316522	-0.631786		5.625091	
N	-0.182730	0.300805		4.178899	
C	0.780042	1.096847		3.418977	
C	1.207698	2.423345		4.076340	
C	1.401142	3.551549		3.029897	
C	2.246506	3.101499		1.849376	
O	3.464440	3.115639		1.860253	
O	1.593600	2.644743		0.762961	
C	5.914696	2.498870		-0.906682	
C	6.391192	1.368717		0.004690	
O	7.423511	0.731864		-0.214061	
C	4.863258	2.030023		-1.913656	
O	5.401863	0.981447		-2.690617	
N	5.564226	1.116660		1.056334	
C	5.862541	0.091432		2.036987	
C	6.892908	-3.865374		0.298011	
C	5.875390	-4.807503		0.461092	
C	6.608668	-2.612699		-0.249833	
C	4.571678	-4.508908		0.067053	
C	5.306405	-2.299809		-0.644774	
C	4.305381	-3.258493		-0.489041	
O	2.986856	-3.002056		-0.862695	
C	4.267466	-2.384325		-3.961209	
C	3.050288	-1.528235		-3.750074	
N	3.128457	-0.150446		-3.838877	
C	1.745555	-1.886659		-3.462509	
C	1.912164	0.303713		-3.601193	
N	1.034067	-0.704212		-3.380050	
C	-2.715040	2.612181		-3.879475	
C	-1.463580	2.923886		-3.057120	
C	-1.539135	2.301355		-1.672941	
S	-1.616468	0.515485		-1.618675	
C	-1.605997	3.056654		-0.556132	
S	-1.864313	2.362080		1.053225	
W	-2.494569	-0.011270		0.606355	
C	-1.400907	4.553641		-0.636183	
C	-0.670637	4.888971		-1.932736	
O	-1.372489	4.350276		-3.040171	
C	-7.096823	-0.287088		-2.009602	
C	-6.832430	-1.285545		-0.884079	
C	-5.385170	-1.274088		-0.410695	
S	-4.765383	0.308777		0.138554	
C	-4.633375	-2.395231		-0.376949	
S	-2.937281	-2.370804		0.123688	
C	-5.228223	-3.738258		-0.734411	
C	-6.749805	-3.655776		-0.644270	
O	-7.230537	-2.558608		-1.401052	
O	1.478088	-1.956654		1.044663	
O	-2.558508	-0.235589		2.558523	
O	-0.396775	-0.786351		1.114816	
C	0.415755	-1.443122		0.475413	
H	-0.760248	-2.520807		5.060390	
H	2.126749	2.280464		4.652126	
H	0.432219	2.747903		4.777070	
H	1.911122	4.404030		3.486618	
H	0.417680	3.879281		2.676737	
H	0.280769	1.300418		2.474132	
H	4.575372	2.893814		-2.539152	
H	3.957079	1.715709		-1.370847	
H	4.680807	0.649885		-3.265967	
H	5.489298	3.315941		-0.312662	
H	5.196480	-0.774073		1.943455	
H	5.762188	0.494489		3.050602	
H	6.094295	-5.779471		0.894485	
H	7.371805	-1.846601		-0.350735	
H	3.764261	-5.226080		0.175149	
H	5.092071	-1.319457		-1.063434	
H	2.961555	-2.347388		-1.586936	
H	4.101716	-3.408129		-3.615762	
H	5.124960	-1.968786		-3.427462	
H	1.271259	-2.850355		-3.352129	
H	0.077934	-0.561217		-3.043774	
H	1.621739	1.343502		-3.556545	
H	-2.825050	1.535870		-4.030813	
H	-3.599129	2.981197		-3.352672	
H	-0.577223	2.521201		-3.586347	
H	-0.815777	4.899614		0.226384	
H	0.361304	4.502531		-1.892696	
H	-6.434424	-0.495972		-2.854674	
H	-6.917014	0.736010		-1.671758	
H	-7.484765	-1.036739		-0.024867	
H	-4.851324	-4.508619		-0.049110	
H	-7.059086	-3.564414		0.410957	
H	-0.623268	5.969868		-2.103104	
H	-2.361624	5.084707		-0.597806	
H	-2.650217	3.109692		-4.852843	
H	-8.135386	-0.377458		-2.343823	
H	-4.929445	-4.039273		-1.748225	
H	-7.227621	-4.548738		-1.062249	
H	-1.922319	-1.207113		5.357482	
H	1.665417	0.487140		3.207427	
H	4.532485	-2.426832		-5.024201	
H	6.791439	2.865605		-1.446912	
H	6.888963	-0.240869		1.877409	
H	4.782228	1.743332		1.227755	
H	-1.090402	0.180421		3.725870	
H	-0.816512	-1.752422		6.652115	
H	2.033152	-2.425428		0.362593	
H	7.906140	-4.103254		0.609121	
H	-2.641507	-1.175436		2.781593	
H	0.288387	-1.623821		-0.600198	
H	0.621336	2.610349		0.896823	