104

C	-0.407365	5.596967		-2.283790	
C	-1.013743	5.473438		-0.884004	
O	-1.384342	6.464426		-0.259617	
N	-1.089477	4.198169		-0.389464	
C	-1.816710	3.906521		0.847462	
C	-1.112740	2.959240		1.816339	
C	-0.811766	1.590120		1.212355	
C	-2.027339	0.789432		0.799994	
O	-3.136045	0.944637		1.275024	
O	-1.807854	-0.161454		-0.126821	
C	-6.276880	-0.678297		3.322944	
C	-6.932102	0.095618		2.183175	
O	-8.157904	0.160112		2.077944	
C	-4.975125	-1.421398		3.024975	
O	-5.203306	-2.378615		2.011818	
N	-6.093500	0.757426		1.349562	
C	-6.613563	1.578228		0.280179	
C	-7.288710	-1.190267		-3.128870	
C	-6.400132	-1.024489		-4.195292	
C	-6.783755	-1.279544		-1.829749	
C	-5.028180	-0.939898		-3.969480	
C	-5.410862	-1.195331		-1.587051	
C	-4.526692	-1.020219		-2.661959	
O	-3.180000	-0.929525		-2.504701	
C	-4.089041	-4.528773		-0.711450	
C	-2.809436	-3.955319		-0.184045	
N	-2.713932	-3.482322		1.114631	
C	-1.595979	-3.804742		-0.812970	
C	-1.471744	-3.060680		1.258318	
N	-0.749254	-3.242664		0.122632	
C	2.695503	-2.209133		4.012575	
C	2.018351	-0.846979		3.876314	
C	2.267956	-0.127299		2.552790	
S	2.206970	-1.053984		1.067958	
C	2.470857	1.209313		2.502222	
S	2.620979	2.043349		0.966523	
W	2.354671	0.492715		-0.878981	
C	2.550807	2.048281		3.759032	
C	1.951491	1.270031		4.932992	
O	2.453654	-0.056424		4.980390	
C	6.809659	-0.451064		0.683141	
C	6.584735	-1.311774		-0.567789	
C	5.195961	-1.092084		-1.141360	
S	4.726135	0.573721		-1.425887	
C	4.334114	-2.107584		-1.387275	
S	2.658857	-1.758453		-1.838392	
C	4.779611	-3.543504		-1.254706	
C	6.307099	-3.592952		-1.158393	
O	6.785505	-2.672715		-0.188060	
O	2.325878	2.034323		-1.813813	
O	0.557846	0.202597		-1.372641	
O	0.016778	2.187563		-2.652932	
C	1.196165	2.500336		-3.052047	
H	-0.845456	6.471960		-2.766722	
H	-1.755937	2.843892		2.695790	
H	-0.167022	3.403923		2.144589	
H	-0.246868	0.971421		1.921136	
H	-0.153300	1.700932		0.353025	
H	-2.803147	3.490148		0.602647	
H	-4.641301	-1.899452		3.964070	
H	-4.183585	-0.710921		2.742141	
H	-4.346783	-2.815316		1.809865	
H	-6.096753	0.030028		4.144029	
H	-5.819858	1.762773		-0.446189	
H	-6.985485	2.543352		0.650852	
H	-6.777431	-0.954885		-5.212872	
H	-7.455378	-1.410496		-0.985683	
H	-4.325983	-0.802937		-4.786110	
H	-5.040097	-1.266952		-0.567594	
H	-2.944952	-0.854955		-1.563547	
H	-4.004467	-4.754409		-1.777941	
H	-4.917076	-3.827310		-0.577684	
H	-1.270201	-4.030304		-1.816222	
H	0.204064	-2.934144		-0.027369	
H	-1.051547	-2.610998		2.146392	
H	2.312859	-2.909102		3.266599	
H	3.777036	-2.116226		3.876717	
H	0.924250	-0.997397		3.970818	
H	2.014642	2.996591		3.629017	
H	0.851410	1.254254		4.851364	
H	6.002442	-0.611117		1.403097	
H	6.836325	0.607563		0.420224	
H	7.339161	-1.038676		-1.330700	
H	4.439488	-4.130763		-2.118713	
H	6.752841	-3.375627		-2.143672	
H	2.212648	1.734050		5.889088	
H	3.598096	2.302714		3.970548	
H	2.497525	-2.608118		5.011413	
H	7.760992	-0.730449		1.147357	
H	4.330144	-3.999175		-0.362501	
H	6.651616	-4.581832		-0.839818	
H	-0.579408	4.705628		-2.890780	
H	-1.986020	4.875664		1.321633	
H	-4.352486	-5.453789		-0.184710	
H	-7.030615	-1.389097		3.672959	
H	-7.441741	1.072434		-0.220754	
H	-5.089251	0.658547		1.424743	
H	-0.847758	3.443498		-1.025981	
H	0.672421	5.763161		-2.198790	
H	-0.886947	-0.117524		-0.501847	
H	0.189824	0.960784		-2.045033	
H	-8.358251	-1.252540		-3.307789	
H	1.663967	1.902860		-3.848616	
H	1.459492	3.562468		-3.082796	