104

C	0.700306	-4.749579		3.427707	
C	1.602915	-3.599308		3.862622	
O	2.594590	-3.773827		4.564038	
N	1.241735	-2.365664		3.389518	
C	1.979219	-1.155786		3.740231	
C	3.036934	-0.736687		2.708179	
C	2.485568	-0.597432		1.277135	
C	2.685396	-1.849898		0.442335	
O	3.649748	-2.573832		0.528721	
O	1.771577	-2.097427		-0.539526	
C	5.987656	3.714542		1.046898	
C	6.420375	2.351813		1.590788	
O	7.047428	2.251870		2.644362	
C	4.670357	3.757828		0.267834	
O	4.797200	3.033298		-0.948063	
N	6.075390	1.299701		0.803287	
C	6.504521	-0.053109		1.083480	
C	6.840565	-1.203927		-3.194918	
C	6.756797	-2.557865		-3.529953	
C	5.708620	-0.554940		-2.695425	
C	5.568755	-3.263242		-3.349325	
C	4.512053	-1.250202		-2.515159	
C	4.440172	-2.617600		-2.825299	
O	3.309754	-3.353064		-2.663907	
C	3.355944	2.545954		-4.206442	
C	2.168014	2.398880		-3.312913	
N	2.308340	2.350676		-1.937188	
C	0.838057	2.277150		-3.636873	
C	1.089461	2.202742		-1.445926	
N	0.167729	2.152013		-2.438404	
C	-3.082019	4.745767		1.031935	
C	-1.728997	4.133641		1.381958	
C	-1.703636	2.622438		1.214613	
S	-2.391143	1.987027		-0.301208	
C	-1.203039	1.790332		2.152653	
S	-1.229709	0.032496		1.949328	
W	-2.343698	-0.334610		-0.177347	
C	-0.617131	2.343721		3.432303	
C	-0.324107	3.835544		3.268772	
O	-1.445287	4.515814		2.726090	
C	-7.047569	0.826405		0.908653	
C	-6.977514	-0.255534		-0.175510	
C	-5.548975	-0.517288		-0.628358	
S	-4.405649	-0.967199		0.667397	
C	-5.152308	-0.379239		-1.912752	
S	-3.447019	-0.497169		-2.372935	
C	-6.168896	-0.130531		-3.001907	
C	-7.565490	-0.460839		-2.475863	
O	-7.803472	0.205415		-1.246295	
O	-1.839602	-3.499716		1.696248	
O	-0.866631	-1.458684		-0.930360	
O	-1.466964	-4.091344		-0.457303	
C	-1.857518	-4.310673		0.791925	
H	1.068443	-5.150048		2.476164	
H	3.850880	-1.466762		2.700560	
H	3.465296	0.218854		3.032269	
H	3.042513	0.182309		0.739159	
H	1.435059	-0.289401		1.279147	
H	2.467428	-1.339217		4.701393	
H	4.412539	4.810455		0.066632	
H	3.862757	3.344238		0.892596	
H	3.889744	2.778475		-1.257775	
H	5.936267	4.391689		1.904380	
H	5.718608	-0.770690		0.834135	
H	6.739665	-0.124431		2.146550	
H	7.628151	-3.074686		-3.924942	
H	5.750151	0.502700		-2.446017	
H	5.495539	-4.320091		-3.586123	
H	3.633761	-0.737614		-2.134418	
H	2.735139	-2.938253		-1.994974	
H	3.053441	2.791356		-5.228464	
H	3.943597	1.621018		-4.240993	
H	0.325025	2.267586		-4.585793	
H	-0.829350	2.055480		-2.277284	
H	0.819151	2.130945		-0.402223	
H	-3.312859	4.606790		-0.026356	
H	-3.873424	4.279119		1.625385	
H	-0.958163	4.579302		0.722389	
H	0.305076	1.810202		3.693235	
H	0.557925	3.979181		2.621541	
H	-6.559020	1.739013		0.555956	
H	-6.550675	0.494734		1.822600	
H	-7.405930	-1.193899		0.225935	
H	-5.936816	-0.750697		-3.877774	
H	-7.673946	-1.551567		-2.352866	
H	-0.114627	4.307528		4.233709	
H	-1.318723	2.184492		4.261959	
H	-3.062418	5.817794		1.251753	
H	-8.095915	1.048709		1.131641	
H	-6.130045	0.915890		-3.332930	
H	-8.343949	-0.117401		-3.165098	
H	-0.339131	-4.445430		3.292125	
H	1.245989	-0.353310		3.871487	
H	4.018746	3.335707		-3.838416	
H	6.788771	4.085711		0.393330	
H	7.404177	-0.322091		0.513581	
H	5.632554	1.529808		-0.082392	
H	0.353472	-2.263257		2.915667	
H	0.771200	-5.540276		4.176736	
H	0.923527	-1.599534		-0.484280	
H	-1.185384	-3.140301		-0.543355	
H	7.770725	-0.659585		-3.329368	
H	-0.925107	-1.576687		-1.891919	
H	-2.205906	-5.348813		0.911171	