104

C	-0.335577	3.140439		-5.069613	
C	-1.335115	3.450126		-3.960821	
O	-2.475592	3.817101		-4.226816	
N	-0.913546	3.282472		-2.666589	
C	-1.829042	3.634102		-1.580427	
C	-1.372849	3.237851		-0.180756	
C	-1.069016	1.755011		-0.004987	
C	-2.250490	0.815418		-0.035867	
O	-3.413147	1.119495		0.095400	
O	-1.894287	-0.491703		-0.184885	
C	-6.334343	1.349065		3.058807	
C	-6.810635	1.773241		1.669014	
O	-7.551376	2.746766		1.525588	
C	-4.977337	0.657019		3.169160	
O	-5.061719	-0.639267		2.597578	
N	-6.388134	0.978197		0.654248	
C	-6.592201	1.320903		-0.735439	
C	-7.146650	-2.953765		-1.813311	
C	-6.335040	-3.530456		-2.794789	
C	-6.552745	-2.263704		-0.755435	
C	-4.947155	-3.415302		-2.730855	
C	-5.165903	-2.136417		-0.681765	
C	-4.358664	-2.710984		-1.672919	
O	-3.000745	-2.617366		-1.633853	
C	-4.001611	-4.099947		2.189490	
C	-2.721427	-3.322023		2.242607	
N	-2.662076	-2.077320		2.847530	
C	-1.475671	-3.651024		1.761669	
C	-1.411220	-1.672269		2.732025	
N	-0.649446	-2.592877		2.089203	
C	2.622107	0.745578		4.714250	
C	1.757110	1.589610		3.767710	
C	2.033335	1.466320		2.259662	
S	2.135153	-0.164206		1.555921	
C	2.077238	2.558751		1.455139	
S	2.225862	2.432878		-0.303344	
W	2.444031	0.068468		-0.792015	
C	1.965723	3.954883		2.030180	
C	1.281860	3.892552		3.393611	
O	1.912907	2.932481		4.223427	
C	6.824694	0.249586		1.081829	
C	6.786481	-0.995847		0.191268	
C	5.410399	-1.166429		-0.419864	
S	4.755257	0.312249		-1.150277	
C	4.684391	-2.299106		-0.315110	
S	2.989955	-2.361806		-0.826183	
C	5.309587	-3.538448		0.281008	
C	6.824952	-3.355915		0.394086	
O	7.144673	-2.113651		1.003434	
O	0.657818	-1.054798		-3.653646	
O	2.436006	0.605816		-2.999232	
O	0.538583	-0.685860		-1.420375	
C	0.098246	-1.160118		-2.555571	
H	-0.723096	2.304441		-5.658680	
H	-2.164534	3.540660		0.512832	
H	-0.470963	3.797429		0.088093	
H	-0.553098	1.588064		0.949289	
H	-0.358663	1.430249		-0.764707	
H	-2.790506	3.163161		-1.804940	
H	-4.704884	0.594501		4.235384	
H	-4.208645	1.264861		2.666765	
H	-4.204905	-1.103180		2.753039	
H	-6.335078	2.260572		3.664498	
H	-5.634653	1.531098		-1.222930	
H	-7.222276	2.211130		-0.770750	
H	-6.785712	-4.072021		-3.622893	
H	-7.161692	-1.808105		0.020185	
H	-4.306036	-3.852049		-3.490285	
H	-4.707583	-1.595006		0.140101	
H	-2.746837	-1.968720		-0.950717	
H	-3.878925	-5.011072		1.597548	
H	-4.804029	-3.509507		1.739604	
H	-1.113401	-4.516768		1.229777	
H	0.322556	-2.467981		1.832497	
H	-1.010967	-0.730179		3.077195	
H	2.502252	-0.320881		4.507009	
H	3.677992	1.006068		4.596979	
H	0.700079	1.292265		3.924663	
H	1.398072	4.604674		1.353252	
H	0.212602	3.649144		3.270607	
H	5.994904	0.231038		1.793225	
H	6.750421	1.159195		0.485179	
H	7.541914	-0.887163		-0.611850	
H	5.082018	-4.413439		-0.342940	
H	7.288509	-3.421049		-0.605206	
H	1.352064	4.848860		3.922074	
H	2.963902	4.401230		2.133672	
H	2.318289	0.949763		5.744354	
H	7.767881	0.265917		1.639261	
H	4.878594	-3.736000		1.271627	
H	7.271722	-4.131111		1.025351	
H	0.663244	2.880108		-4.706956	
H	-2.018887	4.716580		-1.598786	
H	-4.328311	-4.386818		3.196018	
H	-7.094912	0.683552		3.488939	
H	-7.085673	0.507462		-1.277890	
H	-5.701969	0.269595		0.886046	
H	0.065776	3.130156		-2.462909	
H	-0.269296	4.008439		-5.730784	
H	1.801095	-0.061171		-3.434910	
H	-8.227302	-3.046093		-1.871445	
H	-0.869617	-1.678060		-2.485158	
H	-0.935386	-0.571119		-0.405524	
H	3.332848	0.427165		-3.321189	