104

C	-0.477913	-1.652034		5.498648	
C	0.556023	-0.627357		5.033253	
O	1.716664	-0.670772		5.433338	
N	0.106283	0.294281		4.135040	
C	0.979140	1.310869		3.562981	
C	0.587323	1.670088		2.130366	
C	0.696694	0.496781		1.158184	
C	2.084057	0.260595		0.612783	
O	3.047312	0.966365		0.817469	
O	2.194998	-0.813313		-0.203832	
C	6.104494	3.550727		-0.406334	
C	6.697629	2.656603		0.676972	
O	7.883065	2.750468		0.997676	
C	5.047858	2.947236		-1.328348	
O	5.608857	1.856974		-2.027548	
N	5.818878	1.829183		1.296920	
C	6.206715	0.998061		2.410957	
C	7.795646	-2.706490		0.541838	
C	7.148398	-3.938848		0.424408	
C	7.121410	-1.537611		0.187372	
C	5.835076	-4.008288		-0.037082	
C	5.803986	-1.590398		-0.267661	
C	5.160909	-2.831057		-0.380073	
O	3.879737	-2.938033		-0.842965	
C	5.215352	-1.321449		-3.776860	
C	3.805699	-0.835907		-3.623252	
N	3.523624	0.503098		-3.411615	
C	2.628609	-1.545941		-3.657039	
C	2.212192	0.595461		-3.316226	
N	1.620328	-0.618640		-3.469210	
C	-2.322115	2.790812		-3.832335	
C	-1.759091	3.354702		-2.524606	
C	-2.309788	2.712922		-1.252027	
S	-2.196244	0.935047		-1.124527	
C	-2.771502	3.448836		-0.217062	
S	-3.327162	2.711436		1.295425	
W	-3.175346	0.329650		0.952505	
C	-2.771524	4.959997		-0.279362	
C	-1.780915	5.423029		-1.345042	
O	-2.023110	4.755442		-2.573166	
C	-6.400419	-0.709712		-2.343720	
C	-6.349354	-1.927981		-1.419734	
C	-5.228495	-1.743976		-0.418471	
S	-5.375277	-0.256398		0.576900	
C	-4.147471	-2.547372		-0.390948	
S	-2.707848	-2.102688		0.541692	
C	-4.140565	-3.843586		-1.164064	
C	-5.567171	-4.175792		-1.598542	
O	-6.153153	-3.065313		-2.261111	
O	-2.454191	-0.015117		2.723931	
O	0.167311	-2.642863		-0.595164	
O	-0.177949	-4.880880		-0.735336	
C	0.564049	-3.931256		-0.720974	
H	-0.270868	-2.612201		5.014300	
H	1.236167	2.482769		1.788971	
H	-0.439771	2.048711		2.113846	
H	0.040927	0.652722		0.292753	
H	0.343151	-0.428470		1.629931	
H	2.001783	0.926084		3.609388	
H	4.713535	3.742468		-2.019098	
H	4.156827	2.647240		-0.753721	
H	4.903146	1.474714		-2.592287	
H	5.675837	4.431567		0.092233	
H	5.901792	-0.039218		2.249849	
H	5.757083	1.347422		3.350233	
H	7.666954	-4.854591		0.697302	
H	7.613946	-0.572642		0.260648	
H	5.315010	-4.956814		-0.130010	
H	5.290639	-0.671538		-0.538296	
H	3.477755	-2.051242		-0.846704	
H	5.266659	-2.407974		-3.673782	
H	5.860798	-0.874100		-3.017330	
H	2.426310	-2.597529		-3.785632	
H	0.633904	-0.812337		-3.375365	
H	1.649037	1.499859		-3.133664	
H	-2.089222	1.727558		-3.932049	
H	-3.409088	2.911057		-3.855109	
H	-0.659898	3.205911		-2.527287	
H	-2.495827	5.376486		0.697368	
H	-0.747684	5.239338		-1.005298	
H	-5.414182	-0.535382		-2.782158	
H	-6.702767	0.185497		-1.798127	
H	-7.315385	-2.033853		-0.891547	
H	-3.731449	-4.648139		-0.539718	
H	-6.169908	-4.469214		-0.723043	
H	-1.884784	6.492863		-1.553566	
H	-3.777084	5.334410		-0.514003	
H	-1.888270	3.334499		-4.676579	
H	-7.117929	-0.892907		-3.150942	
H	-3.488282	-3.765342		-2.044016	
H	-5.584095	-5.002293		-2.316035	
H	-1.510193	-1.362025		5.280364	
H	0.958012	2.221239		4.179558	
H	5.622640	-1.048332		-4.757965	
H	6.950025	3.900592		-1.004751	
H	7.292306	1.047046		2.507081	
H	4.871983	1.732296		0.957547	
H	-0.870685	0.308920		3.852905	
H	-0.364403	-1.796622		6.575282	
H	1.361629	-1.330890		-0.261579	
H	-0.813079	-2.583355		-0.398755	
H	8.819809	-2.659144		0.900510	
H	1.660740	-3.977515		-0.812939	
H	-2.393162	-0.969191		2.891827	