104

C	-0.127478	4.949851		-3.641136	
C	-1.080833	4.979571		-2.452950	
O	-2.069829	5.707308		-2.443798	
N	-0.782183	4.148840		-1.408776	
C	-1.663424	4.094164		-0.241538	
C	-1.022436	3.438243		0.974247	
C	-0.794809	1.940868		0.789187	
C	-2.067407	1.132429		0.754601	
O	-3.116486	1.503580		1.244119	
O	-1.965294	-0.079542		0.178491	
C	-6.275421	0.297054		3.127902	
C	-6.899778	0.675847		1.786798	
O	-8.104130	0.538133		1.571906	
C	-5.073133	-0.644018		3.088488	
O	-5.446392	-1.861181		2.475265	
N	-6.038271	1.232444		0.894355	
C	-6.477801	1.737587		-0.386011	
C	-7.090153	-1.779407		-3.031343	
C	-6.054985	-1.961650		-3.952709	
C	-6.785192	-1.564496		-1.686629	
C	-4.724465	-1.919714		-3.541993	
C	-5.457164	-1.524895		-1.259686	
C	-4.425269	-1.695193		-2.192300	
O	-3.110083	-1.665516		-1.835526	
C	-4.024712	-4.446199		0.242599	
C	-2.833532	-3.800968		0.884027	
N	-2.943743	-3.150890		2.101419	
C	-1.530421	-3.728674		0.448405	
C	-1.739194	-2.694316		2.385398	
N	-0.841455	-3.027242		1.421577	
C	2.643896	-1.090913		4.485109	
C	1.798057	0.093043		4.018049	
C	2.067353	0.521866		2.579006	
S	2.075134	-0.732181		1.330584	
C	2.280744	1.814682		2.244823	
S	2.584667	2.297079		0.582859	
W	2.455994	0.313487		-0.850677	
C	2.267715	2.906630		3.292662	
C	1.543840	2.401085		4.539951	
O	2.063050	1.145441		4.944238	
C	6.890334	-0.240831		0.971231	
C	6.822899	-1.039163		-0.337377	
C	5.422163	-0.992911		-0.923107	
S	4.770258	0.630817		-1.194489	
C	4.680670	-2.104670		-1.110400	
S	2.957642	-1.968626		-1.479043	
C	5.293750	-3.475995		-0.980214	
C	6.817157	-3.338753		-0.973696	
O	7.226342	-2.372004		-0.018500	
O	1.838459	1.343661		-2.275663	
O	0.295448	-0.502292		-1.345904	
O	-0.048662	-1.112389		-3.660773	
C	-0.225845	-0.197765		-2.870855	
H	-0.667068	4.563084		-4.510837	
H	-1.683869	3.595474		1.831731	
H	-0.064475	3.920327		1.194990	
H	-0.184720	1.536430		1.605438	
H	-0.215034	1.742639		-0.113505	
H	-2.593251	3.570907		-0.499301	
H	-4.742401	-0.804458		4.131100	
H	-4.233457	-0.169248		2.562849	
H	-4.636353	-2.415287		2.444089	
H	-5.975590	1.221095		3.641191	
H	-5.927228	1.271542		-1.208538	
H	-6.349210	2.826444		-0.450955	
H	-6.283789	-2.131177		-5.002019	
H	-7.573705	-1.413919		-0.954524	
H	-3.905478	-2.048200		-4.242896	
H	-5.234873	-1.366901		-0.207122	
H	-3.023245	-1.337723		-0.925487	
H	-3.815111	-4.710082		-0.796890	
H	-4.883595	-3.771330		0.256356	
H	-1.048191	-4.100809		-0.442389	
H	0.122888	-2.713682		1.385171	
H	-1.468924	-2.118713		3.259319	
H	2.426270	-1.985218		3.896667	
H	3.707462	-0.858257		4.380958	
H	0.727942	-0.184531		4.101183	
H	1.769148	3.804736		2.907655	
H	0.460682	2.323952		4.345091	
H	6.114460	-0.586537		1.659675	
H	6.742958	0.824143		0.785663	
H	7.540724	-0.611378		-1.062278	
H	4.974964	-4.114499		-1.815207	
H	7.175621	-3.065911		-1.980213	
H	1.686856	3.079693		5.386793	
H	3.295421	3.197901		3.546895	
H	2.428779	-1.295341		5.538071	
H	7.869770	-0.392929		1.436585	
H	4.954805	-3.964462		-0.056879	
H	7.299882	-4.277367		-0.683266	
H	0.764089	4.337274		-3.478887	
H	-1.955729	5.123244		-0.009614	
H	-4.314291	-5.359032		0.777446	
H	-7.075822	-0.164564		3.711966	
H	-7.537536	1.502207		-0.491215	
H	-5.049433	1.277786		1.110448	
H	0.049292	3.574226		-1.442798	
H	0.173592	5.974956		-3.871653	
H	-1.087526	-0.201384		-0.265007	
H	0.366691	-1.472893		-1.340278	
H	-8.125396	-1.806481		-3.359610	
H	-1.169017	0.341011		-2.692015	
H	1.034685	0.963779		-2.796511	