104

C	-0.712254	5.785408		-1.819047	
C	-0.965514	5.445564		-0.355127	
O	-0.588419	6.174312		0.555487	
N	-1.625090	4.265191		-0.138188	
C	-2.073010	3.845815		1.186769	
C	-1.224780	2.753599		1.848594	
C	-0.928570	1.552474		0.955495	
C	-2.117924	0.745448		0.480269	
O	-3.257283	0.877874		0.887816	
O	-1.834658	-0.180111		-0.456708	
C	-6.357672	-1.063276		3.327836	
C	-7.017552	-0.092091		2.354453	
O	-8.211176	0.193875		2.465139	
C	-4.982389	-1.621965		2.968279	
O	-5.076844	-2.332631		1.751097	
N	-6.217547	0.463769		1.415108	
C	-6.765423	1.364075		0.428632	
C	-7.301190	-1.210333		-3.152902	
C	-6.628356	-0.611244		-4.221686	
C	-6.617707	-1.426516		-1.953780	
C	-5.294352	-0.228968		-4.097837	
C	-5.280995	-1.049100		-1.814330	
C	-4.613896	-0.443553		-2.890276	
O	-3.318839	-0.043155		-2.817412	
C	-3.983799	-4.560684		-0.917398	
C	-2.692365	-4.021277		-0.387111	
N	-2.620709	-3.414722		0.854966	
C	-1.449964	-4.000999		-0.975247	
C	-1.364914	-3.036342		1.004072	
N	-0.612646	-3.377544		-0.072379	
C	2.665099	-2.267296		4.008017	
C	1.867517	-0.964478		3.914485	
C	2.053603	-0.214362		2.599038	
S	1.935346	-1.124911		1.102610	
C	2.306228	1.113363		2.553952	
S	2.568080	1.919551		1.017459	
W	2.325526	0.334864		-0.794608	
C	2.395752	1.939355		3.816914	
C	1.766301	1.159786		4.972938	
O	2.271731	-0.165547		5.025743	
C	6.726917	-0.137567		0.834989	
C	6.692286	-0.920630		-0.485462	
C	5.301783	-0.880002		-1.093420	
S	4.620787	0.723379		-1.369985	
C	4.573001	-1.999112		-1.317422	
S	2.856503	-1.862314		-1.706363	
C	5.205680	-3.363555		-1.200367	
C	6.726965	-3.206760		-1.161221	
O	7.106117	-2.254006		-0.179903	
O	2.100744	2.016812		-1.878438	
O	0.538323	-0.056358		-1.564309	
O	1.537639	2.723506		-3.980218	
C	1.121285	2.370122		-2.719127	
H	-0.855765	6.859486		-1.954294	
H	-1.745517	2.432249		2.758098	
H	-0.262525	3.180530		2.149882	
H	-0.255646	0.860424		1.474011	
H	-0.366871	1.882221		0.078189	
H	-3.102807	3.487775		1.093874	
H	-4.651067	-2.274630		3.795059	
H	-4.246872	-0.800720		2.906584	
H	-4.198181	-2.727058		1.542827	
H	-6.301333	-0.554284		4.299278	
H	-5.941719	1.809975		-0.132150	
H	-7.343842	2.153906		0.917783	
H	-7.146703	-0.437280		-5.161716	
H	-7.119354	-1.884018		-1.105564	
H	-4.759960	0.239037		-4.918959	
H	-4.767888	-1.212687		-0.870670	
H	-2.951496	-0.237914		-1.933904	
H	-3.820737	-5.125358		-1.840152	
H	-4.691490	-3.755079		-1.137401	
H	-1.097265	-4.358898		-1.929890	
H	0.357246	-3.123103		-0.213918	
H	-0.951761	-2.508781		1.850715	
H	2.338727	-2.978699		3.246104	
H	3.730983	-2.068855		3.863690	
H	0.792395	-1.204245		4.032190	
H	1.881350	2.900199		3.688480	
H	0.668592	1.145110		4.864694	
H	5.954407	-0.512403		1.511753	
H	6.550807	0.924844		0.659422	
H	7.416822	-0.473001		-1.191872	
H	4.912556	-3.993048		-2.051855	
H	7.101304	-2.909177		-2.155213	
H	2.005001	1.618380		5.937696	
H	3.445050	2.169423		4.045373	
H	2.518221	-2.709797		4.997662	
H	7.705558	-0.268315		1.308543	
H	4.856294	-3.873004		-0.292416	
H	7.216616	-4.145018		-0.880917	
H	-1.359180	5.242435		-2.514448	
H	-2.072253	4.740055		1.814809	
H	-4.459301	-5.223740		-0.186812	
H	-7.063434	-1.890909		3.453707	
H	-7.428779	0.850054		-0.276708	
H	-5.272024	0.136007		1.273712	
H	-1.997389	3.776348		-0.938280	
H	0.329188	5.555907		-2.066917	
H	-0.875499	-0.158325		-0.772149	
H	2.410303	2.315259		-4.095552	
H	-8.342214	-1.503566		-3.252676	
H	0.337082	0.586847		-2.288112	
H	0.354514	3.051423		-2.340859	