104

C	0.617507	1.688811		5.739112	
C	0.940685	2.743966		4.677080	
O	0.830073	3.941146		4.939246	
N	1.371107	2.273568		3.469966	
C	2.004046	3.143606		2.481870	
C	1.402244	3.116772		1.075916	
C	1.224630	1.711749		0.476681	
C	2.431776	0.789741		0.685415	
O	3.314589	0.752392		-0.194004	
O	2.423722	0.124657		1.785767	
C	6.255912	2.203374		-2.817115	
C	6.921071	1.790747		-1.507428	
O	8.136845	1.933207		-1.351850	
C	4.955076	1.531884		-3.239627	
O	5.210203	0.186071		-3.580463	
N	6.106625	1.364651		-0.516077	
C	6.646280	1.060964		0.789280	
C	7.081094	-3.354458		0.550566	
C	6.620402	-3.964303		1.721156	
C	6.293646	-2.376215		-0.062093	
C	5.404978	-3.584849		2.290778	
C	5.073575	-1.991739		0.493208	
C	4.630676	-2.580431		1.689306	
O	3.470034	-2.208940		2.289424	
C	3.756815	-3.202105		-3.468560	
C	2.676828	-2.284783		-3.009042	
N	2.633582	-0.969622		-3.429822	
C	1.651854	-2.519166		-2.126801	
C	1.611844	-0.422892		-2.798977	
N	0.974589	-1.323131		-2.010858	
C	-2.769487	2.332625		-4.176580	
C	-2.000291	2.807369		-2.943008	
C	-2.206530	2.011829		-1.645612	
S	-2.300567	0.266813		-1.745635	
C	-2.213677	2.650764		-0.434203	
S	-2.244191	1.783307		1.075828	
W	-2.225254	-0.596248		0.520176	
C	-2.202547	4.162293		-0.345668	
C	-1.674676	4.761438		-1.648888	
O	-2.329446	4.180590		-2.766435	
C	-6.856665	0.900971		-0.662669	
C	-6.963034	-0.537249		-0.144818	
C	-5.571892	-1.066855		0.157636	
S	-4.624885	-0.093210		1.233786	
C	-5.062606	-2.166246		-0.477768	
S	-3.367991	-2.562601		-0.451250	
C	-5.978167	-3.070669		-1.270358	
C	-7.436339	-2.697642		-0.999632	
O	-7.621339	-1.299121		-1.153449	
O	-0.427427	-2.837866		2.516512	
O	-2.057827	-1.033203		2.557072	
O	-0.623695	-1.328164		0.456125	
C	0.455927	-2.186120		1.856060	
H	1.381196	1.742944		6.521412	
H	2.068152	3.708842		0.434925	
H	0.429532	3.622897		1.085636	
H	1.022204	1.800168		-0.595699	
H	0.363239	1.241126		0.948699	
H	3.062539	2.859798		2.412728	
H	4.554864	2.095776		-4.104610	
H	4.199443	1.612154		-2.443147	
H	4.332182	-0.243122		-3.666575	
H	6.084792	3.287744		-2.747253	
H	5.826040	0.748799		1.436761	
H	7.141104	1.939275		1.222215	
H	7.218413	-4.733790		2.204993	
H	6.626680	-1.888224		-0.974739	
H	5.047853	-4.035245		3.212628	
H	4.476938	-1.212536		0.027952	
H	3.205424	-1.280552		2.008073	
H	3.641255	-4.198188		-3.031742	
H	4.738490	-2.815384		-3.174034	
H	1.352089	-3.403299		-1.585773	
H	0.234837	-1.132495		-1.345864	
H	1.310417	0.611885		-2.863168	
H	-2.482985	1.314191		-4.447884	
H	-3.847795	2.356739		-3.992659	
H	-0.919008	2.734224		-3.170885	
H	-1.593391	4.496018		0.501220	
H	-0.585933	4.608686		-1.723753	
H	-6.162158	0.945323		-1.506018	
H	-6.502267	1.571058		0.121131	
H	-7.574689	-0.553961		0.776064	
H	-5.793487	-4.119631		-1.004464	
H	-7.732329	-3.017941		0.013174	
H	-1.872162	5.836214		-1.696302	
H	-3.225944	4.516453		-0.162087	
H	-2.538790	3.002270		-5.008653	
H	-7.842015	1.237090		-1.001686	
H	-5.758036	-2.971167		-2.341374	
H	-8.105871	-3.180117		-1.717775	
H	0.586232	0.667426		5.348794	
H	1.958092	4.156650		2.888381	
H	3.759632	-3.303547		-4.560219	
H	7.006430	2.059367		-3.600313	
H	7.384979	0.254115		0.745326	
H	5.114946	1.190748		-0.650904	
H	1.553443	1.284418		3.322791	
H	-0.343623	1.935000		6.196549	
H	-1.159576	-2.131250		2.800188	
H	8.034162	-3.645499		0.117431	
H	1.142365	-2.767172		1.245533	
H	0.780765	-1.184746		2.139691	
H	-2.860622	-0.929657		3.081278	